
This full-field turbulence file was generated by TurbSim (v1.06.00, 21-Sep-2012) on 28-Mar-2017 at 18:42:58.

 | w-comp |  Y  x  Z  | Grid Resolution (Y x Z) | Time-step | Hub Elev | Mean U |
            13    13     14.600     14.600          0.050      87.70      8.57

 Z Coordinates (m):
  -87.600 -73.000 -58.400 -43.800 -29.200 -14.600   0.000  14.600  29.200  43.800  58.400  73.000  87.600

 Y Coordinates (m):
  -87.600 -73.000 -58.400 -43.800 -29.200 -14.600   0.000  14.600  29.200  43.800  58.400  73.000  87.600

    0.000  -0.248
   -0.232  -0.457  -0.052  -0.430  -0.266  -0.328   0.518  -0.103  -0.691  -0.277   0.340   0.605   0.186
    0.465   0.010   0.425  -0.013   0.354  -0.440   0.286   0.427  -0.467   0.714  -0.201   0.359   0.340
    0.095   0.158   0.112  -0.263   0.445   0.009   0.430  -0.365  -0.568   0.401  -0.418   0.385  -0.126
   -0.271  -0.180  -0.139   0.132   0.458   0.540  -0.070  -0.483  -0.323   0.161  -0.085  -0.137   0.334
   -0.335   0.036  -0.058  -0.593   0.349  -0.071   0.674   0.639   0.122  -0.451  -0.286  -0.162   0.465
   -0.182   0.291   0.881  -0.274   0.193   0.129   0.209  -0.203  -0.565  -0.212   0.227  -0.122  -0.025
   -0.632   0.142   0.555  -0.050  -0.469  -0.121  -0.248  -0.321  -0.359   0.019  -0.112  -0.007   0.149
   -0.425   0.048  -0.329   0.550   0.228   0.463   0.092   0.137  -0.240  -0.495   0.411   0.197  -0.099
    0.061   0.039   0.349  -0.278  -0.116  -0.256   0.059  -0.163   0.650   0.403   0.626   0.172   0.557
    0.325  -0.314   0.180  -0.003  -0.042  -0.156  -0.088  -0.458  -0.159   0.346  -0.721   0.159   0.310
   -0.059   0.146   0.250   0.182  -0.195  -0.082  -0.244  -0.018   0.483  -0.184  -0.157   0.312  -0.284
    0.231   0.064   0.004   0.025   0.187  -0.002   0.278  -0.430   0.656   0.192   0.831  -0.572  -0.133
    0.076   0.717  -0.519  -0.198   0.391  -0.108  -0.355  -0.244   0.186   0.186  -0.196  -0.254  -0.239

    0.050  -0.337
   -0.239  -0.345  -0.045  -0.396  -0.319  -0.224   0.462   0.061  -0.815  -0.376   0.368   0.776   0.065
    0.381   0.033   0.103   0.252   0.304  -0.643   0.273   0.190  -0.531   0.673  -0.117   0.128   0.429
    0.132   0.099   0.062  -0.069   0.280   0.001   0.331  -0.378  -0.626   0.707  -0.250   0.449  -0.186
   -0.331  -0.228  -0.070   0.301   0.463   0.532   0.056  -0.305  -0.170  -0.027   0.018   0.041   0.322
   -0.380   0.047  -0.206  -0.401   0.231  -0.328   0.697   0.647   0.065  -0.570  -0.142  -0.087   0.498
   -0.065   0.439   1.003  -0.383   0.037   0.125   0.074  -0.267  -0.595  -0.405  -0.003  -0.085   0.039
   -0.618   0.184   0.435  -0.149  -0.326  -0.197  -0.337  -0.431  -0.192  -0.101  -0.188  -0.009   0.186
   -0.670  -0.160  -0.260   0.511   0.245   0.651   0.192   0.147  -0.186  -0.380   0.420   0.160   0.012
    0.172  -0.024   0.097  -0.477  -0.015  -0.302   0.234  -0.210   0.593   0.290   0.565   0.240   0.422
    0.436  -0.206   0.116   0.161   0.080  -0.181  -0.126  -0.424  -0.160   0.153  -0.294  -0.015   0.466
   -0.011   0.039   0.320   0.393  -0.076  -0.184   0.029  -0.283   0.527  -0.277  -0.275   0.249  -0.191
    0.203  -0.032   0.049  -0.033   0.256  -0.005   0.162  -0.433   0.538   0.291   0.795  -0.349  -0.110
   -0.050   0.847  -0.634  -0.183   0.291  -0.365  -0.222  -0.144   0.150   0.270   0.070  -0.309  -0.102

    0.100  -0.410
   -0.056  -0.199  -0.017  -0.242  -0.280  -0.232   0.427   0.083  -0.728  -0.268   0.355   0.994   0.037
    0.471  -0.106  -0.004   0.304   0.217  -0.612   0.280   0.034  -0.577   0.584  -0.118  -0.011   0.416
    0.062   0.274   0.015  -0.167   0.267   0.068   0.424  -0.434  -0.471   0.746  -0.157   0.590  -0.337
   -0.246  -0.150   0.003   0.473   0.582   0.612   0.069  -0.243  -0.078  -0.022  -0.128   0.094   0.280
   -0.353  -0.099  -0.269  -0.536   0.061  -0.106   0.761   0.446   0.235  -0.635  -0.240  -0.003   0.307
   -0.046   0.447   0.834  -0.380   0.113   0.108   0.048  -0.241  -0.434  -0.344   0.174   0.007  -0.038
   -0.598   0.065   0.279   0.077  -0.288  -0.232  -0.410  -0.358  -0.135  -0.190  -0.357   0.076   0.153
   -0.323   0.021  -0.206   0.399   0.364   0.663   0.241   0.006  -0.216  -0.518   0.604   0.032   0.146
    0.020   0.041   0.198  -0.366  -0.035  -0.345   0.128  -0.264   0.565   0.343   0.802   0.104   0.361
    0.299  -0.160   0.170   0.225   0.245   0.092  -0.174  -0.320  -0.115   0.201  -0.339  -0.256   0.457
    0.116  -0.044   0.322   0.326  -0.097  -0.077   0.044  -0.301   0.485  -0.534  -0.144   0.150  -0.186
    0.072   0.005  -0.022  -0.041   0.478   0.015   0.094  -0.316   0.460   0.316   0.777  -0.282  -0.079
   -0.013   0.839  -0.836  -0.138   0.285  -0.401  -0.311  -0.101   0.103   0.484   0.166  -0.317  -0.027

    0.150  -0.249
   -0.149  -0.324  -0.026  -0.148  -0.359  -0.062   0.435   0.182  -0.686  -0.255   0.628   0.832   0.059
    0.501  -0.050  -0.137   0.267   0.319  -0.712  -0.082   0.181  -0.578   0.435   0.011   0.093   0.470
   -0.190   0.281   0.089  -0.296   0.153   0.101   0.272  -0.461  -0.637   0.549  -0.151   0.448  -0.140
   -0.323  -0.341  -0.238   0.390   0.517   0.698   0.063  -0.404   0.103  -0.121  -0.171   0.037   0.038
   -0.369  -0.052  -0.157  -0.702  -0.044  -0.018   0.749   0.601   0.057  -0.756  -0.267   0.116   0.416
   -0.081   0.478   0.761  -0.324   0.263   0.208   0.199  -0.275  -0.245  -0.420   0.125   0.093  -0.098
   -0.432   0.010   0.384  -0.168  -0.249  -0.332  -0.249  -0.360  -0.144  -0.018  -0.140   0.064   0.352
   -0.215  -0.030  -0.165   0.596   0.169   0.473   0.370  -0.008  -0.339  -0.427   0.557   0.100   0.144
    0.010   0.046   0.352  -0.377  -0.060  -0.375   0.027  -0.225   0.566   0.425   0.798   0.148   0.243
    0.194  -0.227  -0.015   0.313   0.268   0.152  -0.050  -0.256  -0.052   0.150  -0.289  -0.206   0.601
   -0.055  -0.072   0.373   0.152  -0.114   0.038   0.038  -0.213   0.260  -0.433  -0.153   0.306  -0.070
    0.206   0.024  -0.068   0.051   0.440   0.066   0.137  -0.455   0.391   0.186   0.766  -0.214  -0.246
    0.110   0.815  -0.538  -0.179   0.300  -0.328  -0.373  -0.159   0.092   0.663   0.121  -0.331   0.238

    0.200  -0.411
   -0.171  -0.177  -0.017  -0.172  -0.319  -0.009   0.563   0.173  -0.719  -0.146   0.568   0.704  -0.019
    0.589  -0.070  -0.228   0.172   0.144  -0.527  -0.410   0.275  -0.475   0.209   0.047   0.168   0.234
   -0.262   0.345   0.053  -0.376   0.166   0.022   0.411  -0.604  -0.300   0.323   0.030   0.399  -0.247
   -0.403  -0.413  -0.267   0.418   0.489   0.537   0.119  -0.222   0.189  -0.042  -0.069  -0.025   0.064
   -0.449  -0.081  -0.153  -0.538  -0.161  -0.076   0.719   0.641   0.326  -0.621  -0.328   0.092   0.542
   -0.018   0.615   0.806  -0.426   0.248   0.150   0.218  -0.316  -0.296  -0.351   0.275  -0.085  -0.006
   -0.343   0.080   0.230  -0.164  -0.216  -0.379  -0.411  -0.249  -0.092   0.008   0.045  -0.180   0.299
   -0.262  -0.020  -0.032   0.639   0.149   0.400   0.617   0.058  -0.206  -0.424   0.677   0.079   0.041
    0.051  -0.089   0.389  -0.433  -0.126  -0.432   0.061  -0.192   0.503   0.206   0.744  -0.099   0.116
    0.338  -0.190  -0.176   0.117   0.306   0.249   0.098  -0.035  -0.086   0.278  -0.234  -0.128   0.795
   -0.073   0.034   0.413   0.143  -0.081   0.001  -0.051  -0.320   0.368  -0.348  -0.024   0.327  -0.063
    0.269   0.013  -0.150   0.100   0.452   0.117   0.115  -0.400   0.562   0.129   0.746  -0.099  -0.189
    0.061   0.699  -0.533  -0.523   0.171  -0.514  -0.382  -0.279   0.033   0.607   0.054  -0.305   0.171

    0.250  -0.596
   -0.243  -0.137  -0.016  -0.188  -0.347   0.060   0.508   0.057  -0.623  -0.088   0.617   0.771  -0.078
    0.677   0.142  -0.224   0.067   0.063  -0.385  -0.345   0.375  -0.434   0.159   0.095   0.295   0.078
   -0.251   0.355  -0.067  -0.349   0.168  -0.042   0.380  -0.745  -0.236   0.270   0.072   0.545  -0.311
   -0.506  -0.353  -0.184   0.354   0.469   0.470  -0.031  -0.144   0.193   0.037   0.026   0.011  -0.035
   -0.435  -0.076  -0.243  -0.501  -0.001  -0.227   0.610   0.500   0.132  -0.698  -0.351  -0.022   0.564
    0.003   0.511   0.820  -0.595   0.206   0.207   0.362  -0.306  -0.281  -0.103   0.168  -0.210   0.026
   -0.205   0.100   0.258  -0.328  -0.252  -0.413  -0.596  -0.115  -0.136  -0.118   0.040  -0.131   0.181
   -0.321  -0.029   0.061   0.645   0.148   0.452   0.619   0.054  -0.155  -0.412   0.670  -0.097   0.048
    0.143   0.061   0.422  -0.359  -0.043  -0.528   0.378  -0.228   0.565   0.205   0.842  -0.070   0.141
    0.354  -0.132  -0.157   0.130   0.347   0.209   0.113  -0.071  -0.219   0.371  -0.424  -0.105   0.732
   -0.114   0.190   0.244   0.232   0.049  -0.016   0.015  -0.335   0.350  -0.326   0.099   0.430  -0.068
    0.255  -0.041  -0.077   0.150   0.294   0.136   0.072  -0.465   0.623   0.039   0.881  -0.277  -0.155
    0.232   0.492  -0.614  -0.436   0.078  -0.494  -0.345  -0.315   0.092   0.533  -0.027  -0.392   0.162

    0.300  -0.529
   -0.223   0.017  -0.017  -0.037  -0.224  -0.008   0.546   0.099  -0.687  -0.058   0.599   0.666  -0.004
    0.764   0.202  -0.013  -0.073   0.024  -0.286  -0.230   0.210  -0.221   0.086  -0.125   0.347   0.028
   -0.479   0.438  -0.227  -0.436   0.100   0.061   0.519  -0.648  -0.154   0.224  -0.007   0.562  -0.242
   -0.481  -0.479  -0.208   0.289   0.345   0.579  -0.165  -0.153   0.164   0.166   0.051  -0.135  -0.060
   -0.300  -0.124  -0.324  -0.705   0.152  -0.369   0.577   0.406  -0.001  -0.727  -0.423  -0.023   0.472
    0.011   0.575   0.799  -0.565   0.126   0.340   0.393  -0.352  -0.338  -0.152   0.302  -0.220   0.171
   -0.314   0.180   0.220  -0.341  -0.159  -0.307  -0.529  -0.157   0.100  -0.093   0.014  -0.064  -0.137
   -0.306   0.046  -0.045   0.676  -0.016   0.422   0.610   0.255  -0.083  -0.427   0.440  -0.003  -0.049
    0.084  -0.015   0.363  -0.217  -0.155  -0.494   0.287  -0.498   0.567   0.285   0.924  -0.014   0.249
    0.719  -0.117  -0.027   0.114   0.380   0.015  -0.037  -0.181  -0.211   0.364  -0.493  -0.009   0.757
   -0.085   0.165   0.102   0.139   0.048  -0.090  -0.072  -0.261   0.452  -0.277   0.231   0.234  -0.136
    0.351  -0.089   0.021   0.105   0.263   0.048  -0.003  -0.463   0.505   0.334   0.791  -0.107  -0.227
    0.186   0.620  -0.569  -0.450  -0.001  -0.551  -0.331  -0.118   0.210   0.345   0.217  -0.316   0.083

    0.350  -0.627
   -0.344   0.100  -0.010  -0.145  -0.273  -0.064   0.494  -0.012  -0.567   0.004   0.602   0.701   0.058
    0.986   0.092  -0.064  -0.021   0.051  -0.244  -0.354   0.345  -0.386   0.162  -0.148   0.216   0.204
   -0.350   0.450  -0.228  -0.391   0.131  -0.058   0.337  -0.553  -0.089   0.057  -0.054   0.437  -0.150
   -0.390  -0.396  -0.185   0.328   0.294   0.657  -0.276  -0.164   0.010   0.205   0.146   0.010  -0.012
   -0.434   0.054  -0.286  -0.797  -0.016  -0.259   0.584   0.364  -0.054  -0.596  -0.421  -0.261   0.482
    0.118   0.375   0.760  -0.444   0.076   0.509   0.213  -0.410  -0.386  -0.273   0.438  -0.275   0.218
   -0.467   0.333   0.283  -0.234  -0.074  -0.478  -0.627  -0.330   0.058  -0.025   0.140   0.041  -0.209
   -0.199  -0.008  -0.133   0.476   0.093   0.461   0.321   0.186  -0.119  -0.446   0.221  -0.026  -0.096
    0.309   0.032   0.254  -0.112  -0.257  -0.524   0.324  -0.590   0.807   0.222   0.767  -0.071   0.152
    0.704  -0.200   0.021   0.095   0.293   0.149  -0.055  -0.063   0.057   0.189  -0.495  -0.067   0.807
   -0.101   0.069   0.152   0.026   0.073  -0.155   0.057  -0.352   0.355  -0.393   0.116   0.410  -0.119
    0.217   0.051  -0.049  -0.118   0.305  -0.142   0.054  -0.286   0.367   0.375   0.621  -0.050  -0.287
    0.155   0.492  -0.688  -0.405   0.018  -0.612  -0.262  -0.165   0.243   0.294   0.032  -0.282   0.222

    0.400  -0.667
   -0.486  -0.090  -0.021  -0.219  -0.433  -0.069   0.570  -0.032  -0.375  -0.163   0.670   0.836  -0.065
    0.792   0.048  -0.113   0.042   0.081  -0.217  -0.306   0.505  -0.391   0.324  -0.007   0.213   0.145
   -0.166   0.297  -0.272  -0.519   0.127  -0.133   0.382  -0.443  -0.106   0.091  -0.221   0.378  -0.266
   -0.226  -0.416  -0.172   0.492   0.198   0.573  -0.327  -0.272  -0.144   0.236   0.231   0.051  -0.094
   -0.462   0.148  -0.125  -0.946   0.013  -0.353   0.559   0.273  -0.089  -0.433  -0.442  -0.381   0.488
    0.093   0.195   0.707  -0.452   0.094   0.336   0.244  -0.237  -0.389  -0.189   0.298  -0.185   0.313
   -0.455   0.377   0.321  -0.148  -0.182  -0.576  -0.667  -0.241   0.225   0.008   0.091   0.242  -0.146
   -0.166  -0.071   0.015   0.311   0.098   0.387   0.176   0.189  -0.255  -0.564   0.401   0.112  -0.096
    0.517  -0.162   0.284  -0.179  -0.174  -0.527   0.411  -0.571   0.805   0.075   0.868  -0.122   0.279
    0.873  -0.255   0.009  -0.099   0.143   0.234  -0.007   0.016   0.022   0.018  -0.789  -0.188   0.614
   -0.038   0.101   0.155  -0.095   0.008  -0.052   0.053  -0.262   0.286  -0.606   0.016   0.293  -0.016
    0.208  -0.062  -0.085  -0.071   0.347  -0.155   0.099  -0.463   0.128   0.577   0.528  -0.104  -0.266
    0.177   0.487  -0.649  -0.359  -0.003  -0.630  -0.196  -0.335   0.296   0.154  -0.026  -0.424   0.148

    0.450  -0.444
   -0.465  -0.115  -0.043  -0.222  -0.514  -0.134   0.648  -0.012  -0.388  -0.089   0.728   0.867  -0.188
    0.732   0.087   0.009  -0.060   0.203  -0.364  -0.239   0.494  -0.339   0.420   0.046   0.105   0.135
   -0.077   0.362  -0.306  -0.517  -0.053  -0.311   0.347  -0.329  -0.090  -0.011  -0.244   0.355  -0.438
   -0.261  -0.413  -0.144   0.206   0.090   0.485  -0.120  -0.459  -0.052   0.181   0.169  -0.083  -0.028
   -0.448   0.271  -0.059  -0.973   0.034  -0.309   0.517   0.365  -0.066  -0.401  -0.374  -0.360   0.361
    0.078   0.251   0.745  -0.316   0.080   0.325   0.256  -0.221  -0.357  -0.156   0.181  -0.258   0.402
   -0.343   0.352   0.241  -0.314  -0.221  -0.528  -0.444  -0.285   0.380  -0.040   0.273   0.201  -0.152
   -0.076   0.025   0.069   0.496  -0.165   0.295   0.241   0.208  -0.141  -0.477   0.422   0.074   0.080
    0.527  -0.141   0.215  -0.169  -0.270  -0.549   0.451  -0.652   0.725  -0.047   0.810  -0.133   0.265
    0.726  -0.278   0.019  -0.121   0.214   0.282  -0.080  -0.153   0.046   0.047  -0.878  -0.039   0.192
    0.110   0.352  -0.013  -0.076   0.207   0.015   0.008  -0.427   0.273  -0.500   0.163   0.306   0.188
    0.170  -0.099  -0.287  -0.075   0.477  -0.085  -0.125  -0.528   0.477   0.629   0.557  -0.098  -0.410
    0.226   0.572  -0.652  -0.204   0.032  -0.796  -0.328  -0.298   0.405   0.363  -0.118  -0.347   0.126

    0.500  -0.406
   -0.304  -0.089   0.121  -0.193  -0.341  -0.049   0.803  -0.225  -0.489   0.021   0.739   0.837  -0.177
    0.754   0.126  -0.258  -0.168   0.344  -0.305  -0.177   0.378  -0.312   0.279   0.002   0.154   0.179
   -0.269   0.260  -0.257  -0.630  -0.144  -0.390   0.376  -0.393  -0.181  -0.118  -0.216   0.305  -0.452
   -0.274  -0.278  -0.250   0.320  -0.015   0.591   0.019  -0.507  -0.083   0.094   0.230  -0.243  -0.189
   -0.455   0.256  -0.086  -0.977   0.053  -0.249   0.422   0.263  -0.073  -0.422  -0.204  -0.545   0.423
    0.268   0.215   0.668  -0.378   0.070   0.298   0.254  -0.228  -0.273  -0.296   0.144  -0.274   0.310
   -0.303   0.353   0.415  -0.277  -0.144  -0.563  -0.406  -0.116   0.401   0.151   0.282   0.009  -0.042
   -0.064  -0.137   0.352   0.578  -0.231   0.451   0.288   0.130  -0.125  -0.550   0.432  -0.001  -0.053
    0.576  -0.035   0.252  -0.155  -0.239  -0.389   0.258  -0.504   0.751  -0.114   0.811   0.153   0.198
    0.446  -0.384   0.108  -0.065  -0.028   0.147  -0.091  -0.079   0.167  -0.016  -0.734   0.295   0.312
    0.337   0.441  -0.034  -0.117   0.297  -0.149   0.075  -0.484   0.307  -0.449   0.143   0.332   0.163
    0.111  -0.087  -0.312  -0.070   0.518  -0.069  -0.208  -0.503   0.393   0.564   0.539  -0.125  -0.260
    0.090   0.374  -0.471  -0.093   0.035  -0.907  -0.282  -0.261   0.378   0.306  -0.321  -0.328   0.097

    0.550  -0.331
   -0.124  -0.142   0.170  -0.177  -0.119   0.054   0.767  -0.265  -0.510   0.153   0.673   0.695  -0.336
    0.758  -0.118  -0.307  -0.088   0.337  -0.567  -0.224   0.390  -0.383   0.138   0.005   0.110   0.144
   -0.205  -0.107  -0.384  -0.506  -0.223  -0.318   0.377  -0.405  -0.121   0.004  -0.203   0.377  -0.168
   -0.361  -0.033  -0.192   0.518  -0.135   0.494  -0.011  -0.481  -0.266   0.009   0.276  -0.335  -0.234
   -0.336   0.178  -0.046  -0.910   0.057  -0.355   0.407   0.310  -0.240  -0.322  -0.257  -0.462   0.304
    0.293   0.067   0.509  -0.263   0.118   0.285   0.261  -0.190  -0.283  -0.242  -0.079  -0.235   0.390
   -0.234   0.284   0.450  -0.229  -0.217  -0.451  -0.331  -0.353   0.352   0.053   0.285  -0.220  -0.181
   -0.064  -0.130   0.262   0.408  -0.231   0.213   0.161   0.232  -0.089  -0.340   0.431   0.123  -0.129
    0.418   0.205   0.399   0.001  -0.145  -0.509   0.298  -0.452   0.815  -0.219   0.782   0.253   0.018
    0.598  -0.416   0.068   0.069  -0.029   0.038  -0.033  -0.081   0.005   0.154  -0.654   0.375   0.356
    0.354   0.318  -0.075  -0.074   0.304  -0.073   0.132  -0.364   0.352  -0.436  -0.073   0.453   0.040
    0.168  -0.036  -0.196  -0.145   0.596  -0.170   0.030  -0.277   0.250   0.596   0.544  -0.100  -0.122
    0.267   0.544  -0.415  -0.187  -0.045  -0.668  -0.284  -0.173   0.339   0.056  -0.314  -0.462   0.193

    0.600  -0.282
   -0.268  -0.192   0.112  -0.299   0.091   0.013   0.810  -0.140  -0.442  -0.009   0.541   0.574  -0.207
    0.982  -0.299  -0.226  -0.262   0.292  -0.576  -0.117   0.465  -0.260   0.090  -0.128  -0.041   0.218
   -0.070  -0.010  -0.369  -0.324  -0.463  -0.361   0.373  -0.459   0.050   0.020  -0.040   0.352  -0.156
   -0.168  -0.109  -0.195   0.616   0.040   0.292  -0.094  -0.454  -0.411   0.170   0.134  -0.408  -0.146
   -0.183   0.188  -0.015  -0.940   0.035  -0.518   0.197   0.221  -0.275  -0.357  -0.284  -0.289   0.439
    0.074   0.121   0.496  -0.170   0.087   0.422   0.250  -0.208  -0.228  -0.230  -0.009   0.007   0.425
   -0.072   0.294   0.638  -0.216  -0.186  -0.440  -0.282  -0.314   0.434   0.011   0.245  -0.293  -0.349
   -0.108  -0.023   0.103   0.474  -0.319   0.307   0.096   0.103  -0.145  -0.405   0.493  -0.029  -0.183
    0.267   0.337   0.421   0.142  -0.272  -0.485   0.349  -0.398   0.768  -0.331   0.942   0.231   0.076
    0.700  -0.230   0.227   0.086   0.163   0.128   0.045  -0.291   0.077   0.077  -0.620   0.315   0.396
    0.414   0.222   0.047  -0.088   0.487   0.008  -0.090  -0.517   0.275  -0.607  -0.074   0.480  -0.259
   -0.117  -0.146  -0.142  -0.059   0.401  -0.216   0.023  -0.182   0.395   0.480   0.522  -0.207  -0.133
    0.279   0.494  -0.503  -0.146  -0.099  -0.677  -0.306  -0.075   0.312   0.194  -0.174  -0.586   0.271

    0.650  -0.237
   -0.267  -0.265   0.094  -0.261  -0.018   0.097   0.872   0.061  -0.450  -0.009   0.535   0.529  -0.012
    0.806  -0.327  -0.108  -0.301   0.251  -0.545  -0.114   0.440  -0.505   0.199  -0.079   0.049   0.287
    0.033   0.191  -0.121  -0.336  -0.365  -0.466   0.338  -0.434  -0.091   0.187  -0.282   0.332  -0.153
   -0.069  -0.068   0.030   0.530   0.213   0.225  -0.232  -0.444  -0.449   0.303   0.186  -0.229  -0.059
   -0.280   0.054  -0.001  -0.860   0.168  -0.168   0.325   0.179  -0.175  -0.480  -0.209  -0.254   0.401
   -0.020   0.138   0.463  -0.094   0.196   0.211   0.357  -0.216  -0.288  -0.310   0.129  -0.107   0.417
   -0.163   0.299   0.385  -0.208   0.029  -0.641  -0.237  -0.177   0.408  -0.275   0.240  -0.070  -0.396
   -0.002  -0.160  -0.086   0.483  -0.281   0.326   0.072   0.053  -0.201  -0.496   0.676   0.064  -0.185
    0.271   0.342   0.500   0.055  -0.345  -0.237   0.293  -0.593   0.674  -0.128   1.041   0.168   0.105
    0.690  -0.029   0.266  -0.034   0.128   0.116   0.066  -0.260  -0.072   0.017  -0.488   0.232   0.520
    0.282   0.172  -0.077  -0.061   0.295  -0.068   0.110  -0.288   0.282  -0.547  -0.004   0.558  -0.263
   -0.397   0.038  -0.185  -0.037   0.391  -0.226   0.066  -0.127   0.264   0.459   0.396  -0.101  -0.080
    0.390   0.342  -0.464  -0.188   0.003  -0.762  -0.218   0.085   0.431   0.305  -0.222  -0.598   0.174

    0.700  -0.163
   -0.201  -0.209   0.081  -0.062  -0.124  -0.004   0.924  -0.145  -0.503  -0.076   0.477   0.284   0.011
    0.822  -0.365  -0.101  -0.135   0.341  -0.822  -0.230   0.463  -0.334   0.208  -0.330   0.123   0.331
   -0.163   0.051   0.003  -0.363  -0.257  -0.634   0.302  -0.543  -0.149   0.253  -0.199   0.322  -0.318
    0.052  -0.020  -0.076   0.325   0.044   0.290  -0.175  -0.531  -0.256   0.499   0.129  -0.064  -0.211
   -0.286   0.126  -0.064  -1.021   0.010  -0.024   0.342   0.233  -0.192  -0.408  -0.221  -0.254   0.509
   -0.160   0.167   0.549  -0.257   0.083   0.134   0.324  -0.441  -0.427  -0.319  -0.014  -0.020   0.388
   -0.195   0.406   0.358  -0.120   0.207  -0.596  -0.163  -0.304   0.199  -0.177   0.361  -0.031  -0.202
   -0.046  -0.029  -0.135   0.369  -0.539   0.413   0.138   0.003  -0.259  -0.163   0.712   0.115   0.076
    0.429   0.193   0.553   0.093  -0.053  -0.534   0.239  -0.473   0.480  -0.131   0.910   0.222  -0.030
    0.776  -0.186   0.209  -0.088   0.079   0.166   0.193  -0.172  -0.017   0.048  -0.595   0.284   0.519
    0.344   0.120   0.015   0.022   0.313   0.028   0.123  -0.358   0.114  -0.487   0.001   0.708  -0.110
   -0.439  -0.046  -0.149  -0.031   0.479  -0.151   0.049  -0.245   0.391   0.220   0.284   0.019  -0.255
    0.417   0.279  -0.431  -0.285  -0.139  -0.474  -0.287   0.152   0.440   0.219  -0.267  -0.372   0.199

    0.750  -0.130
   -0.200  -0.170   0.025  -0.030   0.185  -0.014   0.806  -0.213  -0.430  -0.105   0.625   0.289   0.101
    1.073  -0.323  -0.115  -0.049   0.346  -0.770  -0.000   0.487  -0.290   0.382  -0.482   0.310   0.413
   -0.182  -0.076  -0.043  -0.484  -0.309  -0.664   0.235  -0.410  -0.243   0.232  -0.195   0.252  -0.312
    0.103   0.011  -0.077   0.291  -0.087   0.086  -0.406  -0.499  -0.126   0.370   0.141  -0.083  -0.330
   -0.296   0.215  -0.165  -0.985   0.059  -0.071   0.448   0.157  -0.103  -0.222  -0.304  -0.283   0.467
   -0.073   0.383   0.546  -0.233   0.022   0.228   0.397  -0.357  -0.397  -0.373  -0.080   0.009   0.508
   -0.214   0.468   0.309  -0.150   0.087  -0.628  -0.130  -0.206   0.224  -0.004   0.437  -0.215  -0.313
    0.016   0.045  -0.195   0.397  -0.473   0.401   0.271  -0.054  -0.104  -0.074   0.563   0.244   0.090
    0.497   0.120   0.376   0.122   0.044  -0.544   0.155  -0.288   0.613  -0.228   0.912   0.238   0.050
    0.785  -0.213   0.311  -0.003   0.074   0.091   0.156  -0.128  -0.104   0.008  -0.417   0.243   0.418
    0.306   0.141  -0.082  -0.085   0.016   0.040  -0.105  -0.551   0.119  -0.590  -0.112   0.776  -0.036
   -0.439   0.003  -0.294  -0.151   0.416  -0.293  -0.012  -0.299   0.420   0.145   0.252   0.068  -0.290
    0.485   0.293  -0.478  -0.390   0.080  -0.428  -0.161  -0.025   0.244   0.193  -0.371  -0.195   0.163

    0.800  -0.247
   -0.109  -0.208  -0.009  -0.091   0.101  -0.066   0.607  -0.203  -0.330   0.012   0.568   0.345   0.157
    1.051  -0.114  -0.102   0.031   0.350  -0.606  -0.020   0.541  -0.424   0.256  -0.303   0.443   0.429
   -0.204  -0.050   0.010  -0.596  -0.330  -0.613   0.274  -0.221  -0.021   0.456  -0.072   0.188  -0.416
    0.160  -0.217  -0.231   0.293  -0.101   0.095  -0.339  -0.532  -0.101   0.359   0.109  -0.246  -0.314
   -0.349   0.337  -0.334  -0.889   0.095  -0.101   0.367   0.177  -0.047  -0.383  -0.484  -0.197   0.464
   -0.080   0.498   0.626  -0.066   0.129   0.181   0.184  -0.454  -0.297  -0.317  -0.042   0.080   0.706
   -0.259   0.342   0.410  -0.362  -0.060  -0.648  -0.247  -0.059   0.070  -0.217   0.429  -0.205  -0.349
    0.041   0.084  -0.151   0.341  -0.498   0.165   0.358   0.038   0.039  -0.317   0.352   0.272   0.078
    0.384   0.259   0.307   0.020  -0.120  -0.518  -0.087  -0.437   0.691  -0.143   0.941   0.259   0.112
    0.693  -0.230   0.421  -0.033  -0.006   0.076   0.197  -0.104  -0.054  -0.017  -0.336   0.272   0.534
    0.310   0.144  -0.246  -0.210  -0.078   0.084  -0.189  -0.517   0.070  -0.810  -0.011   0.636  -0.024
   -0.179  -0.020  -0.360  -0.179   0.318  -0.195   0.044  -0.218   0.743   0.198   0.155   0.008  -0.204
    0.461   0.373  -0.622  -0.270   0.019  -0.435  -0.203  -0.107   0.340   0.212  -0.380  -0.382   0.319

    0.850  -0.184
    0.017   0.004  -0.065  -0.091   0.079  -0.089   0.501  -0.235  -0.284  -0.157   0.528   0.326   0.129
    0.753  -0.225  -0.054   0.028   0.282  -0.388   0.135   0.422  -0.400   0.243  -0.334   0.490   0.410
   -0.363   0.042   0.101  -0.532  -0.360  -0.673   0.143  -0.221   0.123   0.532   0.148   0.179  -0.318
    0.122  -0.214  -0.404   0.244   0.104   0.088  -0.383  -0.599  -0.067   0.327   0.188  -0.157  -0.218
   -0.211   0.329  -0.314  -0.757   0.086  -0.096   0.527   0.268   0.048  -0.376  -0.612  -0.060   0.340
   -0.127   0.457   0.577  -0.094   0.069   0.252   0.153  -0.593  -0.324  -0.177  -0.147   0.109   0.642
   -0.480   0.410   0.435  -0.312  -0.173  -0.576  -0.184   0.119   0.143  -0.102   0.573  -0.078  -0.280
   -0.013  -0.030  -0.134   0.200  -0.200   0.059   0.297   0.023   0.046  -0.365   0.120   0.095   0.051
    0.401   0.182   0.237   0.323  -0.163  -0.444  -0.096  -0.348   0.557  -0.042   1.142   0.087   0.051
    0.626  -0.110   0.381  -0.263  -0.053   0.238   0.193  -0.154  -0.160  -0.054  -0.593   0.390   0.388
    0.319   0.183  -0.221  -0.310   0.012  -0.020  -0.068  -0.546   0.100  -0.731  -0.149   0.574  -0.141
   -0.117   0.015  -0.279   0.014   0.335  -0.115   0.070  -0.180   0.697   0.444   0.160   0.283  -0.245
    0.481   0.605  -0.651  -0.110   0.063  -0.348  -0.250  -0.213   0.282   0.042  -0.369  -0.295   0.346

    0.900  -0.152
   -0.166  -0.046  -0.241  -0.139  -0.056  -0.142   0.501  -0.104  -0.579  -0.139   0.364   0.338   0.214
    0.696  -0.337   0.043   0.081   0.319  -0.217   0.210   0.633  -0.167   0.428  -0.348   0.444   0.449
   -0.059   0.035  -0.035  -0.505  -0.438  -0.402   0.053  -0.119   0.102   0.311   0.060   0.137  -0.322
    0.096   0.028  -0.395   0.399   0.027   0.210  -0.524  -0.560  -0.171   0.479   0.308  -0.039  -0.078
   -0.040   0.464  -0.271  -0.637   0.070  -0.208   0.415   0.046   0.131  -0.334  -0.536  -0.127   0.407
   -0.198   0.341   0.451  -0.177   0.025   0.207   0.233  -0.377  -0.310  -0.296  -0.062   0.078   0.616
   -0.512   0.446   0.387  -0.315   0.053  -0.524  -0.152  -0.109   0.160  -0.076   0.458   0.014  -0.178
   -0.059  -0.130  -0.133   0.429  -0.228   0.045   0.331  -0.150   0.083  -0.355   0.286   0.006  -0.011
    0.395   0.153   0.429   0.292  -0.322  -0.254   0.121  -0.302   0.344   0.037   0.918  -0.012   0.232
    0.393  -0.247   0.395  -0.059  -0.066   0.064   0.176  -0.148  -0.127  -0.020  -0.462   0.332   0.226
    0.356   0.147  -0.270  -0.108  -0.163  -0.105   0.128  -0.393   0.104  -0.674  -0.183   0.617  -0.177
   -0.107   0.024  -0.201   0.116   0.377  -0.072  -0.051  -0.021   0.633   0.287   0.245   0.309  -0.407
    0.349   0.485  -0.611  -0.093  -0.333  -0.362  -0.218  -0.265   0.173   0.230  -0.390  -0.245   0.321

    0.950  -0.177
   -0.030  -0.096  -0.232  -0.144  -0.006  -0.186   0.588  -0.106  -0.611  -0.064   0.457   0.368   0.047
    0.843  -0.306  -0.038  -0.075   0.453  -0.224   0.284   0.521  -0.278   0.368  -0.305   0.297   0.374
   -0.028  -0.133   0.153  -0.339  -0.514  -0.536   0.093  -0.214   0.077   0.221  -0.008   0.218  -0.327
    0.219  -0.008  -0.489   0.346  -0.051   0.273  -0.564  -0.627  -0.197   0.454   0.124  -0.008   0.003
   -0.004   0.413  -0.012  -0.713  -0.058  -0.254   0.268  -0.114   0.155  -0.289  -0.410  -0.160   0.292
   -0.050   0.417   0.538  -0.173   0.093   0.152   0.310  -0.199  -0.316  -0.340  -0.011   0.034   0.783
   -0.649   0.427   0.464  -0.555   0.101  -0.449  -0.177  -0.053   0.146  -0.187   0.508  -0.014  -0.354
    0.160  -0.182  -0.064   0.362  -0.250  -0.000   0.306   0.001   0.224  -0.194   0.330   0.101   0.116
    0.405   0.174   0.240   0.256  -0.368  -0.157   0.180  -0.191   0.238  -0.113   0.958  -0.053   0.262
    0.489  -0.281   0.182   0.149  -0.096   0.156   0.229  -0.211  -0.155   0.018  -0.574   0.325   0.501
    0.199   0.253  -0.208   0.026  -0.124   0.032   0.156  -0.445  -0.050  -0.637  -0.303   0.563  -0.214
   -0.095   0.144  -0.264   0.026   0.310  -0.056  -0.311   0.048   0.665   0.123   0.265   0.218  -0.225
    0.193   0.433  -0.568   0.005  -0.269  -0.456  -0.161  -0.412   0.211   0.163  -0.416  -0.156   0.140

    1.000  -0.015
    0.024  -0.177  -0.134  -0.089  -0.011  -0.102   0.700  -0.251  -0.747   0.072   0.638   0.464   0.045
    1.022  -0.395   0.007   0.154   0.440  -0.238   0.188   0.280  -0.165   0.328  -0.356   0.333   0.488
    0.169  -0.109   0.144  -0.238  -0.647  -0.644   0.063  -0.046   0.120   0.221  -0.008   0.079  -0.213
    0.176   0.010  -0.442   0.239  -0.142   0.304  -0.533  -0.531  -0.025   0.481   0.254  -0.066  -0.036
   -0.262   0.530  -0.003  -0.769  -0.048  -0.296   0.129  -0.084   0.061  -0.182  -0.268  -0.052   0.277
   -0.024   0.439   0.496   0.003  -0.005   0.030   0.215  -0.158  -0.420  -0.299  -0.019   0.042   0.954
   -0.610   0.356   0.524  -0.646   0.165  -0.617  -0.015   0.056   0.329  -0.184   0.413   0.030  -0.440
    0.196   0.039  -0.052   0.098  -0.226  -0.077   0.417  -0.001   0.258  -0.298   0.348   0.050   0.313
    0.274   0.269   0.212   0.188  -0.243  -0.271   0.194  -0.228   0.176  -0.249   1.006  -0.111   0.091
    0.489  -0.370   0.139   0.223  -0.217   0.064   0.088  -0.424  -0.378  -0.112  -0.526   0.406   0.509
    0.227   0.361  -0.356  -0.034   0.045   0.065  -0.200  -0.495  -0.040  -0.682  -0.424   0.532  -0.243
   -0.207   0.124  -0.244   0.011   0.221  -0.221  -0.362   0.085   0.619   0.160   0.084   0.158  -0.108
    0.142   0.259  -0.503  -0.095  -0.219  -0.266  -0.046  -0.683   0.157   0.084  -0.520  -0.299   0.080

    1.050  -0.058
   -0.032  -0.170  -0.254  -0.230  -0.103  -0.156   0.717  -0.204  -0.793  -0.061   0.634   0.541   0.029