
This full-field turbulence file was generated by TurbSim (v1.06.00, 21-Sep-2012) on 23-Feb-2017 at 18:41:54.

 | w-comp |  Y  x  Z  | Grid Resolution (Y x Z) | Time-step | Hub Elev | Mean U |
            13    13     14.600     14.600          0.050      87.70      5.81

 Z Coordinates (m):
  -87.600 -73.000 -58.400 -43.800 -29.200 -14.600   0.000  14.600  29.200  43.800  58.400  73.000  87.600

 Y Coordinates (m):
  -87.600 -73.000 -58.400 -43.800 -29.200 -14.600   0.000  14.600  29.200  43.800  58.400  73.000  87.600

    0.000   0.111
    0.120   0.137   0.188  -0.133  -0.028  -0.005  -0.067   0.057   0.048   0.137  -0.199  -0.072  -0.029
    0.125   0.036  -0.111  -0.043  -0.043   0.016  -0.208  -0.169  -0.043   0.185  -0.045  -0.159   0.240
    0.240   0.016  -0.194  -0.042  -0.049   0.134   0.165  -0.053   0.172   0.080   0.095   0.084   0.033
   -0.060  -0.147  -0.202  -0.036   0.138   0.300   0.062  -0.114   0.029  -0.157  -0.215  -0.061  -0.154
   -0.252   0.193  -0.092  -0.139   0.208   0.200  -0.194  -0.037   0.087   0.097  -0.159  -0.465  -0.097
    0.065  -0.004  -0.023  -0.027   0.025   0.136  -0.067   0.097   0.155  -0.301   0.086   0.033  -0.204
    0.121  -0.037   0.236   0.141   0.184   0.010   0.111  -0.052   0.011  -0.180  -0.124  -0.056   0.080
   -0.134   0.209   0.001   0.222   0.129  -0.134   0.040   0.051  -0.125  -0.034   0.295  -0.079   0.044
    0.033  -0.104   0.105   0.158   0.074   0.040  -0.342   0.077   0.041   0.022   0.173  -0.098   0.087
    0.002   0.008   0.003   0.098   0.407   0.252   0.149   0.121   0.248   0.382   0.243   0.175   0.119
    0.237   0.105  -0.315   0.067  -0.155  -0.024  -0.178  -0.023   0.076  -0.112   0.248   0.075  -0.044
   -0.166   0.105  -0.166   0.198   0.202  -0.105  -0.118   0.169   0.029  -0.059   0.004  -0.040  -0.177
    0.162  -0.127   0.082  -0.007  -0.011   0.077  -0.144  -0.115   0.011  -0.330   0.193   0.109   0.271

    0.050   0.122
    0.114   0.106   0.114  -0.152  -0.001  -0.024  -0.066   0.048  -0.003   0.069  -0.180  -0.117  -0.059
    0.058   0.021  -0.126  -0.078   0.010  -0.047  -0.163  -0.169  -0.113   0.106   0.043  -0.022   0.196
    0.190   0.051  -0.225  -0.104  -0.110   0.133   0.059  -0.129   0.162   0.076   0.088   0.139  -0.013
   -0.110  -0.191  -0.227  -0.021   0.121   0.255  -0.053  -0.079  -0.135  -0.117  -0.199  -0.050  -0.134
   -0.260   0.187  -0.093  -0.158   0.248   0.139  -0.278  -0.033   0.003   0.089  -0.286  -0.384  -0.029
    0.021   0.014   0.033  -0.073   0.027   0.080  -0.052   0.118   0.117  -0.315   0.096   0.005  -0.214
    0.077  -0.090   0.274   0.176   0.166  -0.003   0.122  -0.109  -0.087  -0.191  -0.109   0.031   0.084
   -0.172   0.257  -0.051   0.268   0.088  -0.224   0.077   0.079  -0.056   0.069   0.196  -0.081   0.079
    0.067  -0.163   0.131   0.125   0.048   0.109  -0.289   0.186   0.028  -0.015   0.196   0.008   0.052
    0.007  -0.018   0.062   0.104   0.410   0.200   0.162   0.131   0.220   0.300   0.285   0.130   0.112
    0.201   0.159  -0.311   0.108  -0.118  -0.076  -0.198  -0.032   0.082  -0.113   0.282   0.062  -0.162
   -0.146   0.170  -0.186   0.186   0.240  -0.074  -0.088   0.146   0.034  -0.060   0.079   0.027  -0.174
    0.167  -0.124   0.140  -0.003   0.010   0.078  -0.147   0.012   0.009  -0.404   0.147   0.152   0.268

    0.100   0.094
    0.129   0.058   0.140  -0.142   0.059   0.024  -0.072   0.102   0.054   0.030  -0.178  -0.117  -0.050
    0.034   0.074  -0.098  -0.074  -0.012  -0.121  -0.075  -0.128  -0.038   0.083   0.054   0.019   0.227
    0.207   0.066  -0.170  -0.092  -0.060   0.081   0.015  -0.086   0.051  -0.034   0.051   0.059   0.035
   -0.021  -0.215  -0.285   0.036   0.190   0.284  -0.077  -0.077  -0.148  -0.124  -0.187  -0.093  -0.075
   -0.349   0.119  -0.135  -0.110   0.251   0.158  -0.311  -0.051  -0.060   0.080  -0.282  -0.362  -0.085
    0.019  -0.037  -0.024  -0.072  -0.093   0.059  -0.106   0.061   0.033  -0.254  -0.009   0.054  -0.150
    0.087  -0.099   0.185   0.094   0.055   0.004   0.094  -0.086  -0.032  -0.226  -0.045   0.078   0.177
   -0.208   0.330  -0.027   0.223   0.174  -0.172   0.105   0.069  -0.053   0.066   0.262  -0.093   0.036
    0.062  -0.155   0.136   0.144   0.039   0.095  -0.337   0.106   0.057  -0.090   0.167   0.023   0.000
   -0.035  -0.001   0.071   0.124   0.420   0.176   0.095   0.073   0.240   0.292   0.262   0.048   0.112
    0.185   0.108  -0.377   0.081  -0.103  -0.069  -0.186   0.040   0.017  -0.047   0.217   0.139  -0.141
   -0.166   0.084  -0.120   0.181   0.224  -0.044  -0.109   0.228   0.032  -0.012   0.146   0.117  -0.162
    0.134  -0.053   0.130  -0.070  -0.013   0.117  -0.141   0.057  -0.019  -0.358   0.120   0.086   0.232

    0.150   0.014
    0.183   0.080   0.217  -0.133   0.092   0.064  -0.105   0.188   0.072  -0.018  -0.169  -0.097  -0.079
   -0.016   0.090  -0.140  -0.071   0.014  -0.129  -0.078  -0.049  -0.075   0.094   0.047  -0.102   0.150
    0.226   0.078  -0.171  -0.124  -0.034   0.094  -0.041  -0.057   0.157  -0.006   0.036   0.016   0.092
    0.003  -0.179  -0.233   0.054   0.172   0.372  -0.058  -0.032  -0.087  -0.063  -0.199  -0.138  -0.133
   -0.322   0.048  -0.232  -0.065   0.262   0.105  -0.261  -0.002  -0.047   0.165  -0.210  -0.347  -0.100
    0.041  -0.014   0.081  -0.054  -0.024  -0.007  -0.025   0.114   0.029  -0.221  -0.019  -0.021  -0.104
    0.081  -0.143   0.134   0.154   0.102  -0.010   0.014  -0.066  -0.067  -0.199  -0.040   0.161   0.200
   -0.133   0.300   0.008   0.213   0.196  -0.047   0.190  -0.013  -0.098   0.023   0.262  -0.025   0.075
    0.080  -0.162   0.167   0.167  -0.010   0.102  -0.411   0.124   0.042  -0.087   0.193  -0.033   0.043
   -0.020   0.061   0.059   0.026   0.317   0.188   0.020   0.015   0.199   0.327   0.290   0.027   0.139
    0.097   0.105  -0.374   0.098  -0.041  -0.020  -0.223   0.018   0.002  -0.089   0.135   0.063  -0.152
   -0.134   0.098  -0.109   0.158   0.182  -0.037  -0.152   0.187   0.073  -0.104   0.080   0.141  -0.158
    0.150  -0.166   0.136  -0.141  -0.061   0.014  -0.124   0.043   0.040  -0.367   0.095   0.111   0.274

    0.200   0.042
    0.231   0.024   0.212  -0.078   0.032   0.009  -0.135   0.210   0.116   0.005  -0.150  -0.048   0.005
   -0.057   0.114  -0.100  -0.070   0.028  -0.052  -0.197  -0.034  -0.119   0.086   0.060  -0.160   0.090
    0.214   0.096  -0.168  -0.069  -0.057   0.091  -0.055  -0.001   0.170  -0.014   0.072   0.022   0.193
   -0.008  -0.207  -0.237   0.070   0.205   0.264  -0.077  -0.056  -0.072  -0.027  -0.185  -0.130  -0.168
   -0.295   0.080  -0.223  -0.058   0.187  -0.010  -0.301   0.009  -0.019   0.224  -0.209  -0.358  -0.037
    0.088   0.020   0.073  -0.164   0.041  -0.000  -0.025   0.087   0.105  -0.207   0.043  -0.057  -0.217
    0.076  -0.122   0.171   0.125   0.059   0.001   0.042  -0.087  -0.083  -0.231  -0.008   0.094   0.153
   -0.172   0.282   0.034   0.221   0.167  -0.039   0.229   0.007  -0.193   0.001   0.221  -0.127  -0.025
    0.119  -0.108   0.142   0.141  -0.074   0.085  -0.391   0.076  -0.041  -0.031   0.208  -0.021   0.038
   -0.066   0.167   0.046   0.085   0.254   0.248   0.080  -0.062   0.262   0.298   0.266   0.037   0.111
    0.109   0.104  -0.310   0.083   0.013  -0.020  -0.320   0.034  -0.030  -0.081   0.170   0.014  -0.161
   -0.125   0.109  -0.045   0.154   0.209  -0.074  -0.057   0.197   0.008  -0.136   0.049   0.148  -0.078
    0.161  -0.202   0.116  -0.120  -0.112  -0.073  -0.162   0.080   0.023  -0.303   0.030   0.121   0.364

    0.250   0.130
    0.271  -0.018   0.217  -0.137   0.044   0.029  -0.086   0.099   0.115  -0.003  -0.117  -0.099  -0.128
   -0.056   0.102  -0.078  -0.059  -0.005  -0.022  -0.199  -0.055  -0.081   0.106   0.015  -0.159   0.098
    0.217   0.108  -0.193  -0.101  -0.117   0.144  -0.079  -0.031   0.095   0.011   0.022   0.041   0.225
    0.021  -0.195  -0.267   0.056   0.199   0.296  -0.081  -0.020  -0.049  -0.092  -0.204  -0.133  -0.131
   -0.304   0.122  -0.301  -0.072   0.094   0.074  -0.258   0.033  -0.023   0.228  -0.207  -0.361  -0.095
    0.012   0.039   0.071  -0.128   0.049   0.048  -0.051  -0.001   0.083  -0.322   0.066  -0.053  -0.246
    0.176  -0.103   0.194   0.116   0.032  -0.028   0.130  -0.178  -0.046  -0.226   0.042   0.068   0.133
   -0.120   0.348   0.039   0.225   0.153  -0.075   0.165   0.036  -0.180   0.015   0.287  -0.072   0.002
    0.129  -0.119   0.133   0.162  -0.095   0.015  -0.334   0.049   0.042  -0.043   0.185   0.063   0.034
   -0.106   0.251   0.039   0.130   0.280   0.231   0.053  -0.089   0.287   0.341   0.262   0.106  -0.009
    0.094   0.095  -0.289   0.142  -0.022  -0.039  -0.265   0.090  -0.014  -0.024   0.127   0.032  -0.095
   -0.129   0.194  -0.078   0.219   0.230   0.019  -0.018   0.187   0.043  -0.161   0.082   0.134  -0.078
    0.149  -0.250   0.083  -0.116  -0.112  -0.068  -0.185   0.081   0.033  -0.351   0.052   0.094   0.276

    0.300   0.181
    0.263  -0.020   0.257  -0.144   0.048   0.043  -0.097   0.077   0.062  -0.005  -0.107  -0.043  -0.124
   -0.049   0.113  -0.156  -0.009   0.101   0.036  -0.167  -0.095  -0.166   0.078  -0.010  -0.260   0.008
    0.196   0.064  -0.176  -0.052  -0.107   0.140  -0.057  -0.075   0.103   0.015   0.038   0.060   0.280
   -0.012  -0.161  -0.305   0.150   0.334   0.371  -0.041  -0.058  -0.149  -0.122  -0.240  -0.128  -0.158
   -0.260   0.128  -0.312  -0.040   0.137   0.161  -0.266   0.085  -0.083   0.218  -0.245  -0.381  -0.055
    0.008   0.098   0.145  -0.094   0.045  -0.044  -0.034   0.054   0.050  -0.317   0.095   0.052  -0.210
    0.262  -0.118   0.197   0.108   0.053  -0.013   0.181  -0.115   0.045  -0.286   0.054   0.092   0.168
   -0.167   0.392   0.032   0.213   0.157  -0.041   0.112   0.051  -0.091   0.075   0.273  -0.086  -0.018
    0.127  -0.147   0.109   0.282   0.005  -0.053  -0.415   0.067   0.046  -0.037   0.216   0.044  -0.012
   -0.134   0.222   0.057   0.162   0.279   0.225   0.006  -0.090   0.277   0.365   0.191   0.075  -0.021
    0.032   0.183  -0.375   0.113   0.030  -0.008  -0.242   0.075   0.034  -0.053   0.051   0.099  -0.109
   -0.113   0.211  -0.089   0.175   0.170   0.036  -0.096   0.137   0.087  -0.189   0.061   0.124  -0.049
    0.134  -0.257   0.062  -0.148  -0.135  -0.065  -0.144   0.038   0.005  -0.353   0.095   0.181   0.223

    0.350   0.179
    0.260   0.067   0.272  -0.283  -0.001   0.089  -0.104   0.068   0.085  -0.010  -0.020  -0.040  -0.128
    0.091   0.088  -0.250  -0.003   0.083   0.023  -0.223  -0.065  -0.155   0.076  -0.030  -0.255   0.036
    0.181   0.162  -0.096  -0.026  -0.078   0.163  -0.080  -0.084   0.051  -0.003   0.088   0.119   0.164
   -0.035  -0.204  -0.254   0.188   0.263   0.360  -0.002  -0.072  -0.170  -0.043  -0.289  -0.160  -0.189
   -0.167   0.180  -0.235  -0.074   0.151   0.151  -0.251  -0.017  -0.017   0.176  -0.264  -0.409   0.012
    0.071   0.146   0.200  -0.081  -0.026  -0.017  -0.020   0.023   0.070  -0.272   0.030   0.080  -0.184
    0.287  -0.075   0.159   0.157   0.094  -0.080   0.179  -0.142   0.017  -0.232   0.039   0.080   0.088
   -0.168   0.403  -0.024   0.118   0.168  -0.049   0.150  -0.004  -0.073   0.126   0.284  -0.077  -0.037
    0.060  -0.160   0.175   0.291   0.048  -0.074  -0.431   0.039   0.023  -0.065   0.200   0.005   0.039
   -0.096   0.196   0.049   0.143   0.333   0.238  -0.010  -0.025   0.280   0.460   0.233  -0.004  -0.011
    0.087   0.154  -0.374   0.154   0.037  -0.049  -0.195   0.075  -0.019  -0.007   0.007   0.049  -0.093
   -0.118   0.155  -0.079   0.128   0.161   0.013  -0.175   0.138   0.160  -0.196   0.066   0.182  -0.093
    0.188  -0.284   0.014  -0.142  -0.149  -0.091  -0.134   0.060  -0.012  -0.259   0.115   0.214   0.237

    0.400   0.155
    0.233   0.058   0.350  -0.341   0.047   0.088  -0.101  -0.012   0.080   0.035  -0.078  -0.065  -0.186
    0.066   0.121  -0.242  -0.024   0.072  -0.117  -0.254  -0.107  -0.202   0.023   0.104  -0.217   0.083
    0.159   0.162  -0.097  -0.003  -0.094   0.213  -0.006  -0.053   0.107  -0.019   0.143   0.150   0.100
   -0.076  -0.117  -0.208   0.189   0.192   0.433  -0.092  -0.040  -0.155   0.015  -0.288  -0.233  -0.144
   -0.204   0.157  -0.254  -0.060   0.095   0.192  -0.241  -0.008   0.008   0.106  -0.276  -0.324   0.019
    0.101   0.153   0.183  -0.049  -0.034   0.041  -0.038   0.009  -0.003  -0.263   0.013   0.061  -0.154
    0.259  -0.109   0.178   0.225   0.057  -0.070   0.155  -0.117  -0.029  -0.202   0.125   0.025   0.077
   -0.133   0.309  -0.024   0.173   0.094  -0.096   0.179  -0.126  -0.100   0.191   0.257  -0.129  -0.002
    0.080  -0.135   0.203   0.253   0.045  -0.079  -0.396   0.060   0.080  -0.038   0.183  -0.017   0.081
   -0.183   0.249   0.060   0.074   0.230   0.175  -0.026   0.027   0.316   0.502   0.264  -0.019  -0.096
    0.063   0.156  -0.348   0.166  -0.054  -0.075  -0.186   0.125   0.005  -0.001  -0.044   0.068  -0.053
   -0.127   0.126  -0.085   0.187   0.154  -0.029  -0.130   0.157   0.078  -0.189   0.034   0.147  -0.183
    0.243  -0.198   0.049  -0.115  -0.141  -0.066  -0.165   0.041   0.020  -0.292   0.084   0.116   0.224

    0.450   0.139
    0.243   0.084   0.355  -0.326   0.059  -0.007  -0.176   0.019   0.058  -0.024  -0.102  -0.186  -0.235
    0.111   0.210  -0.198  -0.041   0.015  -0.109  -0.240  -0.089  -0.208  -0.041   0.089  -0.206   0.051
    0.187   0.075  -0.140   0.011  -0.083   0.184  -0.005  -0.046   0.175  -0.040   0.159   0.115   0.191
   -0.085  -0.060  -0.129   0.189   0.228   0.414  -0.092  -0.014  -0.184   0.013  -0.248  -0.221  -0.139
   -0.227   0.130  -0.268  -0.080   0.104   0.197  -0.136   0.005   0.016   0.048  -0.321  -0.273   0.018
    0.169   0.170   0.111  -0.008  -0.038   0.049  -0.040  -0.003   0.062  -0.320   0.025   0.001  -0.162
    0.163  -0.234   0.215   0.187  -0.012  -0.067   0.139  -0.080   0.040  -0.179   0.084   0.043   0.069
   -0.189   0.338   0.074   0.164   0.138  -0.122   0.119  -0.092  -0.117   0.162   0.114  -0.055  -0.026
    0.053  -0.193   0.182   0.242   0.144  -0.006  -0.342   0.041   0.106   0.009   0.165  -0.014  -0.021
   -0.099   0.230   0.153   0.133   0.239   0.207  -0.028  -0.001   0.388   0.553   0.228   0.019  -0.095
    0.170   0.288  -0.329   0.249  -0.016  -0.051  -0.178   0.146   0.001  -0.036  -0.087  -0.049  -0.059
   -0.135   0.217  -0.101   0.123   0.163  -0.037  -0.101   0.100   0.069  -0.220   0.060   0.038  -0.190
    0.282  -0.214   0.006  -0.049  -0.110   0.015  -0.201   0.037   0.047  -0.353   0.053   0.030   0.229

    0.500   0.168
    0.261   0.110   0.329  -0.313  -0.015   0.023  -0.238   0.071   0.039   0.003  -0.032  -0.159  -0.211
    0.141   0.235  -0.211  -0.032  -0.006  -0.010  -0.153  -0.046  -0.145  -0.014   0.027  -0.280   0.079
    0.257   0.053  -0.116  -0.109  -0.126   0.204  -0.040  -0.007   0.191  -0.010   0.150   0.172   0.168
   -0.130  -0.067  -0.152   0.146   0.287   0.346  -0.029  -0.016  -0.218   0.082  -0.295  -0.258  -0.137
   -0.259   0.202  -0.240  -0.110   0.210   0.223  -0.089   0.034  -0.046   0.050  -0.296  -0.271   0.076
    0.220   0.168   0.044  -0.052   0.025   0.086   0.017   0.117   0.033  -0.360  -0.064  -0.004  -0.160
    0.193  -0.183   0.192   0.153  -0.027  -0.161   0.168  -0.043   0.076  -0.236   0.006   0.124   0.107
   -0.186   0.264  -0.005   0.172   0.243  -0.090   0.167  -0.017  -0.197   0.132   0.170  -0.010  -0.005
    0.100  -0.241   0.155   0.163   0.126   0.063  -0.252   0.124   0.081   0.061   0.200  -0.046   0.069
   -0.038   0.174   0.153   0.105   0.334   0.203  -0.008   0.061   0.309   0.553   0.143   0.001  -0.137
    0.147   0.194  -0.300   0.214  -0.007   0.043  -0.173   0.206   0.016  -0.048  -0.060   0.005  -0.022
   -0.183   0.145  -0.091   0.133   0.166  -0.002  -0.075   0.127   0.161  -0.222   0.070   0.040  -0.082
    0.252  -0.291   0.005  -0.034  -0.152   0.012  -0.200   0.068   0.079  -0.348   0.086   0.005   0.281

    0.550   0.229
    0.277   0.103   0.296  -0.342   0.026   0.020  -0.151   0.096   0.051  -0.015  -0.011  -0.168  -0.168
    0.115   0.250  -0.194  -0.004  -0.082  -0.004  -0.122  -0.049  -0.098  -0.011   0.047  -0.388   0.074
    0.234   0.094  -0.185  -0.036  -0.118   0.245  -0.077  -0.090   0.233  -0.048   0.194   0.146   0.133
   -0.191  -0.087  -0.194   0.176   0.276   0.411   0.055  -0.014  -0.200   0.030  -0.223  -0.211  -0.199
   -0.165   0.193  -0.272  -0.107   0.254   0.250  -0.131   0.064  -0.021   0.056  -0.285  -0.217   0.065
    0.182   0.066   0.023  -0.000  -0.058   0.114   0.079   0.095   0.063  -0.424  -0.054   0.015  -0.121
    0.184  -0.101   0.210   0.108   0.080  -0.189   0.229  -0.109   0.111  -0.143  -0.151   0.089   0.130
   -0.120   0.243   0.070   0.159   0.208  -0.093   0.153   0.008  -0.118   0.176   0.144   0.023   0.026
    0.077  -0.311   0.115   0.216   0.193  -0.022  -0.221   0.066   0.043  -0.038   0.126  -0.053  -0.008
    0.113   0.081   0.124   0.131   0.348   0.171  -0.077   0.050   0.290   0.531   0.112  -0.017  -0.171
    0.119   0.210  -0.244   0.220   0.000  -0.036  -0.136   0.223   0.078  -0.026  -0.024   0.036   0.016
   -0.131   0.098  -0.099   0.119   0.126   0.019  -0.125   0.111   0.241  -0.234   0.131   0.116  -0.084
    0.258  -0.339  -0.028   0.007  -0.093  -0.046  -0.134   0.089   0.076  -0.291   0.118   0.068   0.274

    0.600   0.289
    0.277   0.057   0.322  -0.262   0.001  -0.008  -0.082   0.037   0.115  -0.047  -0.046  -0.138  -0.108
    0.163   0.180  -0.248  -0.060  -0.111   0.012  -0.093  -0.034  -0.200   0.062   0.102  -0.345   0.103
    0.226   0.061  -0.146   0.080  -0.085   0.320  -0.058  -0.122   0.225  -0.100   0.124   0.086   0.134
   -0.223  -0.084  -0.099   0.108   0.302   0.383   0.050   0.053  -0.151   0.008  -0.191  -0.236  -0.190
   -0.230   0.168  -0.250  -0.069   0.248   0.211  -0.108  -0.018  -0.068   0.045  -0.280  -0.258  -0.003
    0.105   0.124   0.118   0.048  -0.040   0.096   0.050   0.046   0.008  -0.363  -0.046  -0.026  -0.135
    0.141  -0.072   0.257   0.108   0.141  -0.087   0.289  -0.129   0.170  -0.198  -0.176  -0.030   0.151
   -0.089   0.200   0.035   0.111   0.191  -0.100   0.038  -0.027  -0.182   0.129   0.085  -0.002  -0.018
   -0.001  -0.372   0.165   0.210   0.229  -0.014  -0.281   0.040   0.051   0.024   0.067  -0.079  -0.043
    0.117   0.009   0.152   0.137   0.276   0.136  -0.034  -0.021   0.368   0.549   0.143  -0.081  -0.178
    0.147   0.172  -0.290   0.202   0.096  -0.029  -0.153   0.130   0.144   0.045   0.004   0.028  -0.056
   -0.155   0.088  -0.028   0.067   0.120   0.094  -0.090   0.204   0.213  -0.187   0.150   0.156  -0.075
    0.327  -0.362  -0.025  -0.016  -0.038  -0.103  -0.090   0.217   0.159  -0.360   0.031   0.117   0.298

    0.650   0.336
    0.270   0.065   0.279  -0.228  -0.030   0.057  -0.032   0.050   0.123  -0.043  -0.010  -0.057  -0.140
    0.152   0.257  -0.221  -0.119  -0.155   0.037  -0.143   0.009  -0.153   0.053   0.042  -0.324   0.165
    0.246   0.047  -0.141   0.065  -0.106   0.311  -0.097  -0.121   0.189  -0.026   0.121   0.055   0.133
   -0.237  -0.171   0.022   0.110   0.291   0.352   0.060   0.064  -0.163   0.075  -0.197  -0.291  -0.217
   -0.206   0.182  -0.294   0.003   0.187   0.219  -0.139  -0.041  -0.065   0.089  -0.311  -0.232  -0.034
    0.011   0.169   0.190   0.098   0.017   0.095   0.051   0.023   0.027  -0.381   0.015  -0.074  -0.189
    0.205  -0.019   0.255   0.080   0.092  -0.123   0.336  -0.171   0.119  -0.233  -0.182   0.044   0.217
   -0.093   0.296   0.036   0.107   0.223  -0.218   0.078   0.062  -0.284   0.065   0.034  -0.029   0.045
   -0.028  -0.352   0.093   0.203   0.172  -0.024  -0.332   0.028   0.088  -0.055   0.055  -0.049  -0.049
    0.025   0.065   0.158   0.120   0.291   0.127  -0.089   0.071   0.377   0.614   0.175  -0.076  -0.148
    0.036   0.054  -0.267   0.237   0.181  -0.028  -0.119   0.068   0.098  -0.069   0.034   0.000  -0.069
   -0.140   0.128   0.013   0.093   0.132   0.029  -0.167   0.128   0.210  -0.167   0.099   0.148  -0.071
    0.248  -0.367   0.035   0.056  -0.008  -0.063  -0.103   0.190   0.114  -0.345   0.011   0.162   0.327

    0.700   0.329
    0.274   0.005   0.210  -0.238  -0.060   0.013  -0.164   0.079   0.108  -0.005  -0.025  -0.094  -0.169
    0.150   0.225  -0.173  -0.204  -0.156   0.005  -0.144   0.161  -0.170   0.026   0.016  -0.297   0.164
    0.208   0.170  -0.149   0.063  -0.091   0.264  -0.104   0.007   0.189   0.038   0.145   0.077   0.147
   -0.275  -0.096  -0.011   0.159   0.325   0.318   0.020  -0.034  -0.145   0.042  -0.118  -0.272  -0.264
   -0.242   0.159  -0.281   0.039   0.163   0.229  -0.149  -0.063  -0.007   0.094  -0.360  -0.264  -0.006
    0.014   0.089   0.197  -0.038  -0.018   0.047   0.055  -0.046   0.109  -0.346  -0.051  -0.093  -0.150
    0.216  -0.053   0.298   0.066   0.087  -0.098   0.329  -0.113   0.051  -0.245  -0.174   0.104   0.166
   -0.074   0.237  -0.020   0.049   0.241  -0.204   0.117   0.032  -0.257   0.149   0.041  -0.131   0.021
   -0.028  -0.285   0.054   0.141   0.159  -0.066  -0.442  -0.047   0.212  -0.016  -0.009  -0.006   0.015
   -0.000  -0.003   0.137   0.125   0.257   0.151  -0.017   0.139   0.379   0.622   0.118  -0.041  -0.216
    0.010  -0.039  -0.263   0.244   0.195  -0.042  -0.075   0.012   0.077  -0.057   0.055  -0.046  -0.102
   -0.104   0.151   0.023   0.075   0.063   0.011  -0.182   0.086   0.227  -0.022   0.154   0.155  -0.102
    0.202  -0.254   0.041   0.023  -0.014  -0.011  -0.177   0.214   0.201  -0.383   0.115   0.119   0.265

    0.750   0.350
    0.235   0.030   0.261  -0.221  -0.078  -0.073  -0.118   0.028   0.085   0.019  -0.080  -0.117  -0.183
    0.104   0.166  -0.189  -0.195  -0.167   0.110  -0.144   0.126  -0.115   0.123   0.090  -0.319   0.214
    0.105   0.166  -0.054   0.005  -0.036   0.225  -0.070   0.002   0.148  -0.018   0.172   0.091   0.102
   -0.324  -0.182  -0.056   0.096   0.309   0.346   0.097   0.004  -0.165   0.005  -0.123  -0.270  -0.392
   -0.255   0.106  -0.326   0.044   0.120   0.142  -0.161  -0.028  -0.037   0.068  -0.256  -0.303   0.049
   -0.036   0.082   0.182  -0.010   0.001   0.083   0.012  -0.086   0.115  -0.288  -0.066  -0.111  -0.151
    0.194   0.062   0.243   0.092   0.109  -0.161   0.350  -0.107   0.105  -0.250  -0.140   0.056   0.223
   -0.099   0.228  -0.014   0.020   0.240  -0.280   0.173   0.026  -0.266   0.128   0.105  -0.153   0.019
   -0.065  -0.232   0.141   0.072   0.190  -0.070  -0.369   0.003   0.182  -0.001  -0.041  -0.045   0.059
   -0.030  -0.001   0.159   0.100   0.272   0.202  -0.019   0.178   0.329   0.576   0.135  -0.112  -0.124
    0.072   0.058  -0.303   0.306   0.235  -0.013  -0.077   0.089   0.071   0.047   0.018  -0.006  -0.144
   -0.166   0.149   0.123   0.059   0.024   0.096  -0.164   0.002   0.254  -0.053   0.086   0.132  -0.083
    0.221  -0.230   0.047   0.050  -0.005  -0.054  -0.138   0.035   0.149  -0.376   0.072   0.087   0.313

    0.800   0.335
    0.310   0.043   0.268  -0.275  -0.049   0.032  -0.136   0.028   0.095   0.034  -0.155  -0.123  -0.200
    0.109   0.115  -0.234  -0.205  -0.128   0.144  -0.180   0.156  -0.070   0.135   0.110  -0.247   0.247
    0.024   0.143  -0.005   0.010  -0.014   0.219  -0.048   0.042   0.179  -0.062   0.180   0.077   0.087
   -0.292  -0.110  -0.056   0.031   0.273   0.403   0.134  -0.045  -0.159  -0.097  -0.145  -0.201  -0.432
   -0.254   0.191  -0.250   0.037   0.048   0.152  -0.161   0.019  -0.045   0.093  -0.208  -0.230   0.054
   -0.041   0.073   0.186   0.035   0.024   0.071   0.067  -0.128   0.074  -0.310  -0.060  -0.080  -0.201
    0.215   0.042   0.212   0.009   0.100  -0.112   0.335  -0.092   0.110  -0.275  -0.129   0.085   0.191
   -0.165   0.199   0.035   0.021   0.184  -0.353   0.169   0.033  -0.257   0.162   0.025  -0.089   0.086
   -0.030  -0.176   0.192   0.135   0.177  -0.080  -0.327   0.023   0.136   0.187  -0.026  -0.030   0.126
    0.053   0.025   0.137   0.088   0.321   0.164  -0.030   0.071   0.349   0.590   0.096  -0.119  -0.136
    0.033   0.023  -0.275   0.421   0.172  -0.040  -0.008   0.112   0.039   0.117   0.053  -0.081  -0.088
   -0.212   0.134   0.122   0.025  -0.064   0.171  -0.159   0.051   0.225  -0.083   0.110   0.211  -0.006
    0.253  -0.215   0.027   0.140   0.027  -0.015  -0.088   0.020   0.181  -0.349   0.066   0.066   0.328

    0.850   0.261
    0.374   0.028   0.363  -0.361  -0.119   0.071  -0.129  -0.036   0.166   0.025  -0.146  -0.122  -0.163
    0.091   0.091  -0.263  -0.142  -0.127   0.145  -0.240   0.051  -0.037   0.196   0.125  -0.260   0.264
    0.016   0.104   0.018  -0.005   0.033   0.200   0.001   0.029   0.184  -0.088   0.177   0.108   0.115
   -0.324  -0.113  -0.013   0.010   0.354   0.422   0.142  -0.079  -0.125  -0.119  -0.212  -0.146  -0.388
   -0.307   0.251  -0.242   0.087   0.226   0.173  -0.232   0.015  -0.132   0.101  -0.281  -0.270   0.021
   -0.006   0.025   0.142   0.065  -0.041   0.096   0.004  -0.131   0.023  -0.247  -0.070  -0.028  -0.158
    0.171  -0.033   0.215   0.071  -0.010  -0.149   0.261  -0.060   0.038  -0.307  -0.130   0.158   0.212
   -0.124   0.146   0.009   0.070   0.162  -0.348   0.182   0.077  -0.249   0.153   0.044  -0.079   0.062
    0.006  -0.133   0.211   0.115   0.122  -0.134  -0.266   0.033   0.211   0.122   0.029  -0.008   0.124
   -0.029   0.047   0.154   0.146   0.276   0.118   0.038   0.092   0.336   0.540   0.119  -0.104  -0.186
    0.019   0.028  -0.192   0.353   0.132  -0.031   0.017   0.121   0.084   0.091   0.048  -0.056  -0.074
   -0.297   0.128   0.054  -0.016   0.002   0.143  -0.227  -0.047   0.153  -0.141   0.186   0.308  -0.035
    0.194  -0.227   0.084   0.212  -0.042   0.052  -0.127   0.053   0.167  -0.340   0.082   0.105   0.352

    0.900   0.301
    0.366  -0.056   0.351  -0.246  -0.076   0.030  -0.149  -0.032   0.142   0.045  -0.209  -0.093  -0.121
    0.083   0.079  -0.175  -0.143  -0.083   0.171  -0.193   0.035  -0.048   0.181   0.096  -0.245   0.230
   -0.004   0.108   0.058  -0.003  -0.012   0.197  -0.071   0.010   0.150  -0.090   0.049   0.164   0.134
   -0.294  -0.076  -0.010  -0.008   0.311   0.434   0.151   0.020  -0.147  -0.118  -0.215  -0.189  -0.326
   -0.337   0.249  -0.232   0.165   0.275   0.173  -0.183   0.073  -0.121   0.069  -0.227  -0.265   0.061
   -0.043  -0.041   0.193   0.060  -0.046   0.089  -0.020  -0.102  -0.026  -0.270  -0.102  -0.064  -0.100
    0.174  -0.084   0.168   0.145  -0.033  -0.163   0.301  -0.103   0.070  -0.303  -0.095   0.119   0.176
   -0.154   0.123  -0.065   0.014   0.172  -0.328   0.147   0.058  -0.147   0.254   0.071  -0.045   0.064
    0.069  -0.080   0.132   0.064   0.095  -0.111  -0.233   0.085   0.130   0.034   0.072   0.129   0.108
   -0.046   0.003   0.211   0.161   0.268   0.102   0.033   0.064   0.322   0.508   0.121  -0.109  -0.191
    0.018   0.078  -0.260   0.358   0.083  -0.054   0.026   0.083   0.048   0.067   0.018  -0.051  -0.075
   -0.234   0.036   0.046  -0.014   0.006   0.103  -0.253  -0.064   0.140  -0.161   0.168   0.231  -0.037
    0.154  -0.342   0.057   0.214   0.011  -0.031  -0.136   0.042   0.202  -0.361   0.056   0.093   0.371

    0.950   0.325
    0.423  -0.018   0.340  -0.160  -0.065   0.095  -0.072  -0.013   0.038   0.105  -0.240  -0.038  -0.074
    0.102   0.072  -0.184  -0.211  -0.119   0.145  -0.112   0.152  -0.037   0.156   0.046  -0.216   0.317
   -0.019   0.112   0.069  -0.058   0.008   0.232  -0.035  -0.048   0.121  -0.152   0.066   0.142   0.022
   -0.291  -0.058   0.021   0.002   0.219   0.484   0.175  -0.002  -0.202  -0.070  -0.225  -0.164  -0.302
   -0.340   0.159  -0.184   0.158   0.263   0.166  -0.192   0.031  -0.126   0.075  -0.227  -0.270   0.030
   -0.062   0.008   0.150   0.101  -0.060   0.080  -0.005  -0.070   0.014  -0.218  -0.058  -0.138  -0.109
    0.127  -0.036   0.168   0.238  -0.067  -0.156   0.325  -0.114   0.041  -0.345  -0.063   0.063   0.191
   -0.104   0.140  -0.069   0.014   0.204  -0.337   0.125   0.075  -0.142   0.334   0.092  -0.015   0.016
    0.063  -0.057   0.077   0.063   0.205  -0.124  -0.165   0.165   0.074   0.030   0.128   0.205   0.042
   -0.072   0.020   0.256   0.186   0.223   0.137   0.034  -0.032   0.238   0.536   0.067  -0.029  -0.127
    0.038   0.149  -0.315   0.358   0.149  -0.079   0.012   0.101   0.044   0.100  -0.016  -0.037  -0.004
   -0.130   0.058   0.047   0.029   0.028   0.127  -0.124   0.042   0.139  -0.194   0.143   0.211  -0.046
    0.151  -0.349  -0.017   0.238  -0.015  -0.151  -0.107   0.057   0.128  -0.345   0.090   0.169   0.271

    1.000   0.301
    0.355  -0.050   0.302  -0.201  -0.053   0.073  -0.098  -0.058  -0.044   0.166  -0.257  -0.118  -0.024
    0.131   0.073  -0.175  -0.236  -0.139   0.109  -0.083   0.122  -0.007   0.133   0.020  -0.188   0.205
    0.004   0.115  -0.010  -0.103  -0.028   0.146  -0.026  -0.104   0.064  -0.140   0.227   0.053  -0.026
   -0.244  -0.080  -0.033  -0.001   0.186   0.397   0.096   0.031  -0.218  -0.050  -0.289  -0.113  -0.316
   -0.417   0.203  -0.090   0.158   0.242   0.151  -0.173  -0.004  -0.175   0.125  -0.198  -0.261   0.091
   -0.093   0.053   0.192   0.035  -0.042   0.111   0.103  -0.038  -0.005  -0.182  -0.085  -0.209  -0.145
    0.066  -0.007   0.142   0.200   0.010  -0.098   0.301  -0.169   0.112  -0.368  -0.045  -0.039   0.177
   -0.176   0.113  -0.058   0.076   0.268  -0.359   0.191   0.071  -0.223   0.299   0.174   0.041   0.039
    0.057  -0.064   0.102  -0.005   0.255  -0.172  -0.182   0.148   0.133   0.043   0.162   0.171   0.071
   -0.079   0.100   0.263   0.215   0.193   0.196   0.074   0.090   0.263   0.538  -0.002   0.007  -0.128
   -0.003   0.178  -0.257   0.372   0.227  -0.166  -0.062   0.110  -0.024   0.155  -0.018  -0.052   0.002
   -0.114   0.072   0.002   0.006   0.160   0.130  -0.125  -0.054   0.163  -0.210   0.129   0.256  -0.023
    0.061  -0.330   0.051   0.223  -0.006  -0.114  -0.100   0.128   0.154  -0.263   0.128   0.112   0.262

    1.050   0.326
    0.263  -0.032   0.304  -0.163  -0.025   0.091  -0.159  -0.078  -0.066   0.090  -0.177  -0.131  -0.063