
This full-field turbulence file was generated by TurbSim (v1.06.00, 21-Sep-2012) on 28-Mar-2017 at 18:42:58.

 | u-comp |  Y  x  Z  | Grid Resolution (Y x Z) | Time-step | Hub Elev | Mean U |
            13    13     14.600     14.600          0.050      87.70      8.57

 Z Coordinates (m):
  -87.600 -73.000 -58.400 -43.800 -29.200 -14.600   0.000  14.600  29.200  43.800  58.400  73.000  87.600

 Y Coordinates (m):
  -87.600 -73.000 -58.400 -43.800 -29.200 -14.600   0.000  14.600  29.200  43.800  58.400  73.000  87.600

    0.000   7.741
    9.534   9.572   9.697   9.662   9.668  10.290  10.205   9.422   8.913   8.271   8.821   9.073   9.032
    8.781   9.719  10.246   9.426  10.306   9.908  10.387   9.307   9.474   9.385   9.405   9.391   8.910
    8.608   9.535   9.483   9.365   8.738   9.985   9.190   8.855   9.456   8.992   9.257   8.986   8.713
    9.157   8.764  10.001   8.879   9.270   9.290   9.694   9.403   9.591   8.436   8.995   8.567   8.190
    8.955   8.565   9.050   9.069   9.582   9.567   8.790   9.269   8.717   8.691   9.493   8.258   8.754
    8.975   8.809   8.569   8.978   8.476   8.880   8.562   8.896   7.964   8.853   8.017   7.846   8.230
    8.615   8.611   8.041   8.573   9.158   8.252   7.741   8.601   8.647   8.214   8.531   8.081   7.990
    7.877   8.236   8.616   7.695   7.890   8.617   8.029   8.417   8.007   7.967   8.345   8.099   8.608
    7.534   7.556   7.816   7.603   8.292   7.860   7.796   8.626   8.865   7.795   8.098   7.820   8.135
    7.251   7.045   7.771   7.251   7.070   7.425   7.372   7.878   7.708   8.206   7.663   8.614   7.785
    6.252   6.158   7.687   7.059   7.221   7.527   7.194   7.417   7.333   7.138   7.423   7.495   7.728
    5.386   6.118   6.470   5.722   6.609   6.164   6.406   6.028   6.591   6.894   6.484   6.731   6.778
    1.062   2.430   1.776   1.708   1.579   2.035   1.615   2.237   2.659   3.123   3.145   3.093   3.335

    0.050   7.867
    9.331   9.546   9.723   9.621   9.592  10.104  10.182   9.429   8.935   8.354   8.835   9.083   9.102
    8.641   9.727  10.543   9.283  10.421   9.878  10.263   9.104   9.388   9.353   9.409   9.421   8.797
    8.681   9.575   9.743   9.526   8.823  10.068   9.163   8.852   9.553   8.925   9.312   9.045   8.617
    9.176   8.782   9.902   9.035   9.266   9.420   9.750   9.341   9.595   8.419   9.037   8.526   8.142
    8.937   8.686   9.116   8.968   9.602   9.531   8.761   9.404   8.704   8.483   9.411   8.155   8.809
    8.999   8.729   8.535   8.940   8.500   8.785   8.596   8.970   8.042   8.851   7.970   7.768   8.337
    8.565   8.628   8.075   8.629   9.219   8.358   7.867   8.392   8.567   8.331   8.513   8.141   8.048
    7.732   8.294   8.388   7.733   7.879   8.717   7.912   8.433   8.040   8.040   8.363   8.161   8.561
    7.506   7.732   7.957   7.674   8.492   7.848   7.898   8.707   8.697   7.908   8.168   7.701   8.126
    7.187   7.130   7.928   7.344   7.127   7.323   7.389   7.924   7.932   8.355   7.701   8.734   7.894
    6.393   6.160   7.711   7.061   7.150   7.518   7.161   7.377   7.389   7.122   7.374   7.522   7.667
    5.633   6.018   6.442   5.737   6.585   6.018   6.427   6.150   6.557   6.642   6.579   6.574   6.673
    1.146   2.424   1.782   1.713   1.488   1.973   1.692   2.338   2.669   3.033   3.124   2.999   3.239

    0.100   7.954
    9.478   9.467   9.709   9.533   9.563  10.067   9.977   9.372   8.916   8.430   8.733   9.063   9.121
    8.737   9.831  10.693   9.306  10.354   9.998  10.307   9.149   9.567   9.252   9.408   9.415   8.982
    8.704   9.539   9.669   9.385   8.706  10.103   9.071   8.702   9.552   9.049   9.315   9.034   8.700
    9.309   8.902   9.880   8.993   9.141   9.508   9.787   9.217   9.688   8.388   9.002   8.517   8.078
    8.757   8.792   8.921   9.009   9.505   9.358   8.838   9.389   8.724   8.620   9.392   8.182   8.987
    8.968   8.690   8.602   8.912   8.596   8.867   8.550   9.053   8.021   8.858   8.004   7.881   8.292
    8.669   8.586   8.120   8.752   9.017   8.224   7.954   8.412   8.412   8.154   8.743   7.980   8.115
    7.551   8.362   8.421   7.780   7.835   8.708   7.712   8.532   8.007   8.066   8.579   8.318   8.524
    7.616   7.836   7.879   7.584   8.365   7.919   8.040   8.722   8.906   8.012   8.129   7.665   8.114
    7.289   7.020   7.937   7.390   7.221   7.191   7.337   8.035   7.942   8.417   7.742   8.671   8.033
    6.337   6.264   7.654   7.117   7.242   7.529   7.096   7.427   7.473   7.084   7.432   7.323   7.591
    5.501   5.949   6.433   5.824   6.618   5.957   6.511   6.193   6.542   6.687   6.432   6.600   6.711
    1.051   2.426   1.823   1.850   1.418   1.872   1.726   2.165   2.619   3.067   3.189   2.911   3.144

    0.150   7.856
    9.404   9.532   9.621   9.521   9.813  10.172   9.892   9.320   9.148   8.289   8.729   9.177   9.160
    8.817  10.140  10.592   9.206  10.427  10.019  10.203   9.266   9.583   9.312   9.342   9.490   9.030
    8.777   9.491   9.662   9.324   8.690   9.788   9.139   8.641   9.441   9.022   9.231   8.966   8.614
    9.228   8.847   9.865   8.958   9.041   9.560   9.719   9.109   9.778   8.411   8.924   8.506   8.176
    8.914   8.816   8.872   8.968   9.493   9.181   8.936   9.465   8.761   8.581   9.326   8.231   9.090
    8.973   8.622   8.649   9.009   8.512   8.890   8.630   9.051   8.100   8.974   8.106   8.029   8.093
    8.725   8.480   8.250   8.823   8.937   8.159   7.856   8.298   8.311   8.115   8.717   8.001   8.237
    7.633   8.379   8.280   7.770   7.843   8.598   7.966   8.493   7.986   8.264   8.568   8.204   8.229
    7.756   7.801   7.843   7.454   8.441   7.853   8.083   8.620   8.929   7.958   8.275   7.958   8.187
    7.248   6.964   7.942   7.431   7.112   7.226   7.446   8.085   7.917   8.414   7.809   8.639   8.014
    6.255   6.348   7.571   6.966   7.209   7.485   7.161   7.570   7.508   7.098   7.365   7.254   7.764
    5.391   5.921   6.420   6.026   6.610   6.210   6.397   6.086   6.655   6.681   6.444   6.622   6.589
    1.001   2.494   1.706   1.948   1.479   1.943   1.892   2.298   2.639   3.064   3.293   3.041   3.104

    0.200   7.965
    9.496   9.433   9.565   9.572   9.747  10.215   9.845   9.216   9.182   8.229   8.877   9.115   9.002
    8.678  10.023  10.576   9.248  10.487   9.985  10.096   9.153   9.553   9.132   9.385   9.400   8.964
    8.812   9.660   9.754   9.449   8.861   9.634   9.168   8.874   9.421   9.023   9.365   9.030   8.683
    9.256   8.790   9.816   9.174   8.904   9.553   9.705   9.033   9.807   8.567   8.854   8.629   8.155
    9.069   8.745   8.902   9.131   9.450   9.182   8.800   9.533   8.859   8.587   9.362   8.216   9.052
    9.034   8.633   8.477   8.954   8.541   9.077   8.708   8.965   7.917   8.943   8.134   8.057   8.083
    8.669   8.387   8.272   8.720   8.877   8.137   7.965   8.345   8.239   8.092   8.604   7.988   8.310
    7.614   8.442   8.417   7.757   7.696   8.540   7.972   8.444   8.101   8.215   8.476   8.087   8.154
    7.617   7.725   7.761   7.577   8.356   7.934   8.040   8.656   8.927   7.950   8.272   8.130   8.297
    7.148   7.039   7.836   7.464   7.127   7.210   7.441   8.089   7.877   8.410   7.857   8.546   7.882
    6.269   6.414   7.545   6.905   7.181   7.459   7.146   7.537   7.620   7.050   7.539   7.352   7.747
    5.426   5.840   6.354   6.098   6.511   6.267   6.288   6.042   6.909   6.725   6.554   6.507   6.599
    1.097   2.361   1.649   2.035   1.584   2.085   1.893   2.396   2.768   2.984   3.125   3.099   3.173

    0.250   8.068
    9.393   9.378   9.868   9.512   9.761  10.199   9.859   9.350   9.091   8.103   8.850   9.147   9.016
    8.717  10.006  10.574   9.233  10.367   9.930  10.172   9.071   9.432   9.100   9.404   9.343   9.071
    8.868   9.666   9.760   9.429   8.857   9.517   9.346   8.819   9.541   9.098   9.361   9.054   8.764
    9.251   8.635   9.766   9.196   8.812   9.529   9.817   9.200   9.659   8.592   8.763   8.621   8.086
    8.934   8.827   8.956   9.022   9.396   9.396   8.680   9.508   8.745   8.595   9.303   8.146   9.001
    8.908   8.661   8.483   8.959   8.608   9.117   8.788   8.859   7.847   9.062   8.032   8.135   8.218
    8.631   8.252   8.283   8.646   8.965   8.143   8.068   8.301   8.191   8.031   8.375   7.987   8.207
    7.561   8.561   8.490   8.025   7.755   8.683   7.998   8.446   8.315   8.295   8.360   8.081   8.218
    7.601   7.766   7.664   7.460   8.360   8.093   7.895   8.486   8.840   7.906   8.407   8.076   8.364
    7.196   7.143   7.720   7.625   7.210   7.261   7.484   7.928   7.787   8.519   7.802   8.632   7.799
    6.291   6.350   7.563   6.803   7.102   7.402   7.100   7.623   7.620   7.023   7.337   7.390   7.646
    5.499   5.893   6.227   6.179   6.488   6.203   6.299   5.987   6.983   6.977   6.607   6.445   6.651
    1.086   2.400   1.642   2.080   1.667   2.129   1.995   2.387   2.850   3.042   3.168   3.107   3.231

    0.300   8.166
    9.498   9.374   9.905   9.565   9.830  10.211   9.875   9.373   9.104   8.112   8.765   9.164   9.036
    8.658  10.099  10.575   9.110  10.336   9.975  10.289   8.880   9.379   9.168   9.327   9.420   8.950
    8.889   9.645   9.759   9.320   8.912   9.375   9.551   8.889   9.497   8.984   9.339   9.118   8.651
    9.188   8.623   9.741   9.018   8.816   9.538   9.667   9.263   9.716   8.647   8.921   8.577   8.238
    8.971   8.807   8.960   8.776   9.396   9.344   8.648   9.462   8.814   8.515   9.189   8.261   8.905
    8.957   8.402   8.601   8.973   8.581   8.982   8.844   8.793   7.799   9.236   8.246   7.973   8.264
    8.544   8.420   8.337   8.465   8.942   8.075   8.166   8.202   8.246   7.918   8.489   8.018   8.151
    7.499   8.572   8.493   8.095   7.851   8.641   7.925   8.406   8.459   8.378   8.367   7.882   8.221
    7.541   7.836   7.689   7.507   8.358   8.130   7.692   8.669   8.854   7.866   8.503   8.165   8.250
    7.365   7.198   7.857   7.681   7.171   7.255   7.531   7.827   7.652   8.587   7.859   8.542   7.854
    6.370   6.444   7.428   6.803   7.219   7.261   7.158   7.810   7.557   7.160   7.552   7.435   7.774
    5.497   6.105   6.418   6.101   6.470   6.035   6.394   5.999   6.901   6.958   6.480   6.355   6.764
    1.138   2.249   1.748   2.119   1.715   1.924   2.091   2.388   2.804   2.949   3.111   3.175   3.414

    0.350   7.911
    9.758   9.264   9.844   9.675   9.813  10.245   9.854   9.452   9.218   8.135   8.624   9.113   9.124
    8.788  10.225  10.452   9.072  10.416   9.957  10.289   9.006   9.295   9.245   9.516   9.452   8.913
    8.889   9.508   9.747   9.232   8.868   9.282   9.447   8.931   9.413   9.054   9.283   9.043   8.828
    9.344   8.638   9.625   8.877   8.922   9.427   9.680   9.241   9.584   8.784   8.904   8.764   8.425
    9.000   8.831   8.925   8.670   9.225   9.550   8.723   9.468   8.901   8.548   9.242   8.278   8.891
    8.966   8.299   8.600   8.936   8.540   9.053   8.696   8.854   7.740   9.237   8.284   7.939   8.373
    8.423   8.442   8.354   8.395   9.073   8.065   7.911   8.376   8.333   8.082   8.377   8.191   8.210
    7.584   8.632   8.538   7.898   7.887   8.419   8.094   8.458   8.410   8.382   8.286   7.906   8.206
    7.583   8.107   7.675   7.683   8.375   8.086   7.668   8.692   8.937   7.785   8.530   8.108   8.233
    7.276   7.044   7.865   7.660   7.245   7.258   7.707   7.699   7.597   8.625   7.780   8.376   7.880
    6.532   6.462   7.560   6.863   7.145   7.302   6.991   7.637   7.560   7.389   7.631   7.432   7.594
    5.620   6.063   6.335   6.021   6.484   6.016   6.271   5.948   6.747   6.824   6.466   6.322   6.691
    1.137   2.338   1.871   2.254   1.616   2.001   2.112   2.379   2.926   2.887   3.215   3.226   3.410

    0.400   7.915
    9.769   9.285   9.786   9.588   9.732  10.357   9.868   9.395   9.194   8.108   8.582   8.934   9.167
    8.926  10.334  10.462   8.889  10.424   9.864  10.286   8.914   9.285   9.286   9.770   9.405   8.904
    8.959   9.485   9.809   9.237   8.857   9.256   9.333   8.961   9.433   9.132   9.215   9.066   8.758
    9.182   8.715   9.634   8.838   9.048   9.331   9.579   9.171   9.418   8.815   9.042   8.827   8.347
    8.951   8.757   8.913   8.826   9.124   9.523   8.746   9.436   8.865   8.639   9.287   8.290   9.119
    8.803   8.357   8.489   9.011   8.426   9.215   8.600   8.921   7.936   9.177   8.142   8.091   8.312
    8.336   8.283   8.383   8.349   8.953   8.071   7.915   8.331   8.379   8.204   8.416   8.171   8.181
    7.491   8.535   8.547   7.835   7.828   8.394   8.118   8.625   8.519   8.260   8.389   7.923   8.160
    7.558   8.019   7.781   7.633   8.436   7.952   7.648   8.676   9.111   7.854   8.391   8.114   8.133
    7.194   7.048   7.872   7.722   7.185   7.124   7.739   7.716   7.537   8.699   7.794   8.484   7.960
    6.553   6.643   7.595   6.938   7.010   7.336   6.869   7.611   7.507   7.331   7.554   7.491   7.503
    5.649   5.868   6.384   5.919   6.370   6.114   6.369   5.914   6.740   6.923   6.509   6.452   6.600
    1.201   2.291   1.914   2.228   1.759   1.985   2.162   2.561   2.981   2.782   3.260   3.281   3.377

    0.450   7.996
    9.714   9.288   9.850   9.616   9.711  10.469   9.865   9.336   9.240   8.088   8.638   8.848   9.087
    8.874  10.261  10.384   8.950  10.287   9.947  10.313   8.816   9.381   9.204   9.778   9.401   8.910
    8.865   9.351   9.761   9.101   8.909   9.309   9.314   8.908   9.459   9.215   9.211   9.071   8.724
    9.239   8.627   9.769   8.895   9.033   9.182   9.396   9.303   9.474   8.784   9.196   8.719   8.413
    8.871   8.782   8.914   8.873   9.205   9.359   8.726   9.415   8.882   8.718   9.237   8.122   9.309
    8.827   8.552   8.621   9.068   8.407   9.176   8.622   8.971   7.957   9.143   8.004   8.138   8.195
    8.300   8.351   8.378   8.268   8.968   7.960   7.996   8.207   8.536   8.258   8.539   8.052   8.172
    7.561   8.355   8.583   8.080   7.921   8.427   8.062   8.571   8.637   8.209   8.336   7.830   8.243
    7.642   8.003   7.745   7.659   8.342   7.978   7.696   8.714   9.157   7.812   8.217   8.066   8.103
    7.295   7.246   7.881   7.776   7.237   7.303   7.783   7.970   7.437   8.680   7.674   8.447   7.726
    6.537   6.663   7.720   6.858   7.134   7.262   6.901   7.823   7.413   7.297   7.645   7.392   7.511
    5.487   5.831   6.527   5.904   6.361   5.918   6.324   5.950   6.564   7.015   6.610   6.459   6.595
    1.191   2.220   2.015   2.192   1.793   2.084   2.139   2.544   3.044   2.864   3.282   3.272   3.445

    0.500   8.159
    9.635   9.396   9.702   9.753   9.770  10.514   9.894   9.400   9.239   8.263   8.509   9.012   8.974
    8.841  10.139  10.436   8.997  10.023   9.936  10.240   8.982   9.329   9.175   9.692   9.354   8.921
    8.686   9.422   9.821   9.119   8.910   9.245   9.196   8.999   9.467   9.104   8.963   9.007   8.681
    9.400   8.658   9.659   9.022   9.017   9.271   9.620   9.213   9.424   8.799   9.253   8.691   8.430
    8.722   8.863   8.831   8.847   9.302   9.542   8.930   9.377   8.955   8.777   9.202   8.284   9.440
    8.828   8.570   8.611   9.024   8.457   9.095   8.584   8.860   7.987   8.948   8.185   8.235   8.136
    8.245   8.364   8.254   8.363   8.828   7.847   8.159   8.322   8.490   8.192   8.408   8.042   8.095
    7.545   8.160   8.451   8.149   7.961   8.348   8.042   8.575   8.692   8.320   8.107   7.750   8.256
    7.439   8.040   7.575   7.678   8.502   8.034   7.959   8.995   8.990   7.850   8.262   8.101   8.111
    7.243   7.260   7.926   7.720   7.196   7.305   7.671   8.010   7.563   8.677   7.926   8.463   7.901
    6.495   6.582   7.678   6.978   7.159   7.219   6.906   7.882   7.478   7.357   7.689   7.394   7.433
    5.549   5.778   6.557   5.989   6.402   5.965   6.333   5.947   6.738   6.938   6.541   6.433   6.561
    1.147   2.178   1.945   2.329   1.667   2.087   2.203   2.568   3.051   2.705   3.244   3.263   3.503

    0.550   8.181
    9.684   9.494   9.679   9.821   9.716  10.603   9.871   9.475   9.083   8.313   8.467   8.877   9.124
    8.759  10.141  10.415   9.022  10.040   9.733  10.096   9.098   9.178   9.122   9.825   9.338   8.875
    8.656   9.475   9.634   9.233   8.894   9.293   9.135   9.082   9.562   9.098   8.922   9.118   8.681
    9.449   8.647   9.769   9.023   8.963   9.364   9.684   9.320   9.511   8.867   9.208   8.637   8.458
    8.691   8.713   8.962   8.777   9.256   9.594   8.898   9.321   8.946   8.798   9.221   8.323   9.406
    8.890   8.655   8.552   9.101   8.592   9.001   8.682   8.865   8.047   8.970   8.201   8.061   8.132
    8.313   8.495   8.238   8.324   8.928   8.052   8.181   8.628   8.533   8.276   8.406   8.045   8.080
    7.764   8.302   8.439   8.080   7.856   8.305   8.066   8.612   8.680   8.296   8.203   7.580   8.133
    7.638   7.835   7.593   7.858   8.534   8.048   7.912   9.101   8.935   7.853   8.274   8.100   8.164
    7.255   7.256   8.012   7.657   7.228   7.252   7.776   7.906   7.683   8.493   8.100   8.292   7.896
    6.482   6.596   7.623   7.114   7.202   7.228   6.901   7.890   7.635   7.279   7.549   7.499   7.464
    5.606   5.882   6.527   5.769   6.470   5.942   6.239   6.027   6.848   6.747   6.561   6.748   6.520
    1.073   2.232   1.970   2.369   1.652   2.109   2.056   2.512   3.079   2.686   3.050   3.204   3.552

    0.600   8.085
    9.666   9.554   9.738   9.732   9.840  10.691   9.987   9.260   9.020   8.374   8.435   8.909   9.157
    8.861  10.163  10.343   8.971  10.012   9.738  10.071   9.067   9.196   9.264   9.808   9.365   8.994
    8.820   9.563   9.658   9.229   9.056   9.245   9.234   8.999   9.631   9.122   9.003   9.311   8.794
    9.497   8.450   9.780   8.961   8.762   9.315   9.725   9.450   9.550   8.733   9.345   8.554   8.355
    8.707   8.721   8.873   8.735   9.226   9.407   8.958   9.263   8.888   8.873   9.255   8.390   9.325
    8.866   8.711   8.395   9.009   8.710   9.085   8.645   8.843   8.133   8.942   8.335   8.173   8.193
    8.240   8.571   8.332   8.507   9.078   8.166   8.085   8.529   8.604   8.245   8.316   8.180   8.260
    7.759   8.350   8.421   8.254   7.909   8.369   8.178   8.605   8.688   8.285   8.134   7.706   8.040
    7.461   7.816   7.597   7.768   8.544   8.048   7.761   9.120   8.994   7.982   8.226   8.349   8.243
    7.272   7.267   8.218   7.515   7.337   7.253   7.854   8.057   7.655   8.263   8.011   8.233   7.884
    6.741   6.607   7.485   6.998   7.162   7.412   6.906   7.692   7.615   7.305   7.648   7.491   7.419
    5.611   6.043   6.579   5.794   6.634   5.973   6.351   6.060   6.861   6.781   6.525   6.678   6.414
    0.843   2.197   2.098   2.450   1.688   2.092   2.082   2.459   3.093   2.830   3.087   2.972   3.521

    0.650   8.244
    9.764   9.565   9.795   9.713   9.938  10.611   9.989   9.118   8.849   8.365   8.509   9.160   9.271
    8.833  10.145  10.338   8.924  10.116   9.864  10.042   8.934   9.247   9.279   9.766   9.374   8.890
    9.052   9.565   9.618   9.436   9.039   9.253   9.078   8.807   9.561   9.091   8.843   9.163   8.949
    9.410   8.491   9.800   8.894   8.750   9.319   9.661   9.328   9.534   8.787   9.198   8.534   8.379
    8.729   8.789   8.878   8.890   9.236   9.559   9.034   9.085   8.997   8.691   9.179   8.476   9.313
    8.890   8.683   8.399   8.819   8.570   8.911   8.760   8.763   8.059   8.983   8.388   8.228   8.154
    8.266   8.656   8.411   8.566   9.042   8.207   8.244   8.625   8.660   8.246   8.253   8.045   8.309
    7.697   8.165   8.453   8.350   7.902   8.417   8.119   8.748   8.684   8.386   7.953   7.716   8.092
    7.394   7.906   7.755   7.764   8.530   8.170   7.875   8.952   9.014   8.037   8.289   8.311   8.240
    7.208   7.311   8.169   7.499   7.327   7.239   7.834   8.101   7.660   8.255   8.131   8.397   7.691
    6.755   6.615   7.573   7.142   7.150   7.434   6.729   7.686   7.629   7.329   7.540   7.554   7.550
    5.647   6.024   6.624   5.916   6.676   6.023   6.476   6.096   6.814   6.777   6.694   6.662   6.507
    0.782   2.329   2.239   2.449   1.611   2.341   2.084   2.234   2.832   2.639   3.082   3.173   3.308

    0.700   8.236
    9.529   9.545   9.719   9.695   9.931  10.582   9.820   9.105   8.714   8.479   8.611   9.188   9.172
    8.922  10.044  10.371   9.007  10.057   9.929  10.134   8.911   9.149   9.323   9.803   9.427   8.816
    9.021   9.528   9.562   9.370   9.075   9.200   9.124   9.073   9.518   8.908   8.751   9.007   8.981
    9.446   8.536   9.766   8.888   8.607   9.355   9.530   9.189   9.415   8.786   9.260   8.525   8.217
    8.763   8.705   9.006   8.783   9.204   9.457   9.291   9.071   9.111   8.658   9.137   8.540   9.099
    8.808   8.674   8.442   8.982   8.586   8.745   9.005   8.837   8.168   8.761   8.448   8.132   8.011
    8.323   8.588   8.261   8.516   9.135   8.360   8.236   8.812   8.773   8.267   8.321   7.894   8.203
    7.680   8.163   8.580   8.273   7.936   8.427   8.167   8.657   8.584   8.374   8.012   7.807   8.080
    7.399   7.838   7.671   7.680   8.218   8.201   8.127   9.007   9.105   8.120   8.277   8.376   7.993
    7.183   7.305   8.145   7.505   7.377   7.158   7.879   8.114   7.721   8.190   7.957   8.518   7.756
    6.563   6.577   7.624   7.045   7.013   7.275   6.743   7.627   7.591   7.528   7.532   7.542   7.505
    5.785   5.906   6.497   5.886   6.553   6.211   6.342   6.148   6.856   6.602   6.681   6.573   6.611
    0.787   2.454   2.232   2.437   1.552   2.485   2.085   2.320   2.808   2.673   2.960   3.102   3.384

    0.750   8.230
    9.529   9.468   9.826   9.758   9.950  10.718   9.966   8.959   8.714   8.551   8.703   9.089   9.057
    9.030   9.938  10.497   9.087  10.061   9.907   9.874   8.890   9.045   9.337   9.754   9.424   8.885
    9.084   9.668   9.749   9.420   9.142   9.125   9.050   9.242   9.331   8.993   8.765   8.921   9.024
    9.319   8.642   9.820   8.802   8.443   9.255   9.620   9.226   9.400   8.891   9.253   8.620   8.199
    8.841   8.792   9.065   8.899   9.095   9.346   9.212   9.062   9.129   8.617   9.059   8.617   9.065
    8.667   8.587   8.450   9.085   8.743   8.626   8.859   8.829   8.094   8.717   8.474   8.104   7.780
    8.365   8.591   8.394   8.435   8.998   8.357   8.230   8.786   8.783   8.168   8.404   7.967   8.238
    7.535   8.035   8.560   8.423   7.843   8.384   8.266   8.631   8.493   8.481   8.006   7.768   8.049
    7.304   7.752   7.680   7.796   8.325   8.030   8.095   9.040   9.082   7.990   8.266   8.475   7.933
    7.136   7.226   7.936   7.499   7.322   7.120   7.942   8.010   7.778   8.168   7.936   8.494   7.683
    6.470   6.566   7.637   6.998   6.988   7.178   6.719   7.642   7.628   7.534   7.555   7.464   7.637
    5.833   5.918   6.527   5.934   6.403   6.384   6.188   6.303   6.922   6.571   6.669   6.540   6.678
    0.812   2.428   2.342   2.232   1.601   2.447   2.041   2.473   2.842   2.759   2.915   3.169   3.446

    0.800   8.180
    9.569   9.539   9.673   9.811   9.991  10.858   9.964   8.999   8.551   8.400   8.645   9.153   9.166
    9.032  10.006  10.463   9.145   9.999  10.015   9.842   8.730   9.002   9.389   9.776   9.417   9.014
    8.961   9.523   9.741   9.480   9.141   9.170   9.107   9.318   9.429   9.186   8.856   8.871   8.964
    9.399   8.548   9.670   8.682   8.479   9.190   9.413   9.289   9.518   8.793   9.289   8.775   8.238
    8.635   8.749   9.081   8.970   9.166   9.391   9.097   8.943   9.222   8.669   9.083   8.622   9.024
    8.652   8.648   8.500   8.927   8.943   8.501   8.907   8.891   7.814   8.831   8.280   8.030   7.686
    8.425   8.560   8.301   8.468   9.021   8.494   8.180   8.763   8.706   7.987   8.549   8.064   8.330
    7.539   8.007   8.657   8.418   7.968   8.452   8.287   8.484   8.468   8.578   8.109   7.828   8.156
    7.133   7.776   7.723   7.787   8.333   8.033   8.011   9.022   9.131   7.903   8.256   8.511   7.840
    7.135   7.194   7.973   7.509   7.436   7.023   8.039   7.918   7.690   8.102   7.789   8.512   7.698
    6.406   6.610   7.720   7.020   7.038   7.245   6.539   7.697   7.703   7.504   7.398   7.534   7.482
    5.892   5.886   6.454   6.088   6.375   6.251   6.019   6.287   6.838   6.754   6.766   6.498   6.716
    0.820   2.327   2.358   2.140   1.694   2.435   2.103   2.454   2.930   2.884   2.902   3.348   3.491

    0.850   8.184
    9.481   9.539   9.698   9.617   9.926  11.088  10.058   9.025   8.476   8.460   8.482   9.055   9.173
    9.046   9.979  10.549   9.227   9.960  10.119   9.806   8.940   9.098   9.361   9.797   9.293   8.919
    8.928   9.571   9.622   9.567   9.001   9.296   9.153   9.268   9.463   9.181   8.856   8.912   8.825
    9.405   8.580   9.669   8.563   8.726   9.335   9.387   9.054   9.475   8.685   9.193   8.797   8.251
    8.519   8.665   9.092   8.989   9.275   9.397   9.178   9.059   9.203   8.695   8.962   8.625   8.882
    8.433   8.649   8.542   9.009   8.858   8.681   8.868   8.863   7.927   8.646   8.251   7.870   7.718
    8.494   8.467   8.206   8.329   9.049   8.432   8.184   8.808   8.586   8.048   8.500   8.063   8.317
    7.610   8.012   8.657   8.439   7.893   8.453   8.151   8.513   8.603   8.566   8.057   7.958   7.944
    7.002   7.984   7.605   7.835   8.242   8.112   8.051   9.218   9.161   7.995   8.265   8.498   7.748
    6.986   7.290   8.111   7.479   7.429   7.248   8.102   7.928   7.616   8.065   7.832   8.523   7.541
    6.502   6.643   7.716   7.169   7.039   7.205   6.584   7.841   7.785   7.312   7.514   7.367   7.587
    5.819   6.026   6.461   6.037   6.427   6.130   5.912   6.323   6.872   6.620   6.867   6.607   6.854
    0.983   2.229   2.342   2.165   1.639   2.481   2.090   2.536   2.918   3.049   3.059   3.456   3.586

    0.900   8.409
    9.324   9.522   9.827   9.428   9.880  11.200  10.153   9.141   8.462   8.353   8.313   9.102   9.324
    9.134   9.957  10.528   9.160  10.023  10.059   9.648   8.970   8.910   9.358   9.829   9.414   9.055
    9.119   9.523   9.636   9.590   9.069   9.002   9.250   9.365   9.349   9.111   8.893   8.900   8.857
    9.516   8.802   9.724   8.631   8.848   9.354   9.307   9.025   9.449   8.879   9.200   8.854   8.240
    8.526   8.723   9.135   8.948   9.205   9.349   9.237   9.170   9.070   8.610   8.990   8.567   8.804
    8.340   8.642   8.644   9.073   8.972   8.711   9.016   8.781   8.007   8.549   8.338   7.883   7.847
    8.491   8.499   8.350   8.268   9.065   8.346   8.409   8.757   8.632   8.152   8.425   8.007   8.459
    7.748   8.036   8.746   8.573   7.821   8.342   8.114   8.524   8.555   8.673   7.976   7.932   8.012
    7.026   7.973   7.521   7.778   8.359   8.031   8.015   9.219   9.164   7.930   8.391   8.460   7.789
    6.904   7.490   8.072   7.524   7.645   7.386   8.214   7.919   7.637   7.933   7.826   8.565   7.609
    6.533   6.565   7.613   7.190   7.055   7.025   6.458   7.924   7.769   7.261   7.575   7.587   7.695
    5.847   6.054   6.486   6.001   6.542   6.049   5.925   6.285   6.888   6.709   6.857   6.613   6.787
    1.040   2.237   2.206   2.226   1.551   2.478   2.016   2.510   2.946   3.172   3.198   3.343   3.571

    0.950   8.537
    9.332   9.414   9.924   9.654  10.067  10.958  10.123   9.052   8.593   8.230   8.216   9.085   9.178
    9.228   9.718  10.406   9.126  10.022  10.322   9.770   8.814   8.853   9.283  10.010   9.362   9.091
    9.116   9.695   9.660   9.570   9.136   9.077   9.259   9.416   9.333   9.237   8.988   8.752   8.866
    9.682   8.807   9.637   8.572   8.754   9.296   9.273   8.958   9.532   8.894   9.270   8.729   8.456
    8.594   8.672   8.903   9.109   9.397   9.234   9.100   9.025   8.979   8.567   8.961   8.600   8.757
    8.493   8.736   8.525   9.137   8.990   8.765   9.261   8.721   7.932   8.739   8.459   7.961   7.999
    8.544   8.512   8.480   8.321   9.220   8.405   8.537   8.702   8.473   8.183   8.405   7.967   8.462
    7.762   8.044   8.740   8.502   7.712   8.252   8.140   8.470   8.519   8.831   7.937   7.997   8.164
    7.006   8.039   7.628   7.742   8.385   8.287   8.041   9.219   8.944   8.106   8.334   8.513   7.742
    6.973   7.531   7.944   7.434   7.602   7.320   8.189   8.088   7.597   7.992   7.847   8.475   7.576
    6.495   6.646   7.809   7.335   7.165   6.993   6.456   7.793   7.668   7.117   7.550   7.756   7.717
    5.828   6.135   6.552   5.794   6.458   6.128   5.815   6.208   6.734   6.732   6.856   6.684   6.794
    1.071   2.307   2.247   2.264   1.492   2.497   2.110   2.638   2.688   3.315   3.241   3.317   3.404

    1.000   8.368
    9.419   9.470   9.745   9.765  10.085  10.923  10.114   9.108   8.657   8.169   8.289   9.127   9.149
    9.036   9.923  10.326   9.174   9.893  10.405   9.627   8.855   8.805   9.465  10.101   9.344   9.113
    9.062   9.806   9.590   9.565   9.136   9.011   9.081   9.438   9.262   9.302   9.125   8.761   8.925
    9.716   8.850   9.651   8.714   8.840   9.197   9.287   8.874   9.463   8.936   9.364   8.850   8.457
    8.599   8.689   8.945   9.224   9.470   9.241   9.051   8.973   8.791   8.638   8.920   8.583   8.756
    8.584   8.727   8.473   9.033   9.095   8.653   9.359   8.735   7.866   8.706   8.305   8.025   8.071
    8.526   8.402   8.444   8.314   9.257   8.364   8.368   8.693   8.311   8.173   8.371   7.980   8.477
    7.847   8.063   8.790   8.583   7.666   8.250   8.122   8.473   8.520   8.770   7.935   7.955   8.094
    7.000   8.036   7.813   7.602   8.317   8.362   8.160   9.019   8.962   8.131   8.211   8.587   7.735
    7.006   7.421   7.783   7.504   7.573   7.277   7.985   7.918   7.505   8.078   7.899   8.236   7.551
    6.396   6.498   7.966   7.245   6.983   6.698   6.516   7.772   7.744   7.174   7.599   7.681   7.789
    5.946   6.090   6.459   5.911   6.167   6.089   5.928   6.250   6.804   6.596   6.769   6.791   6.862
    1.159   2.179   2.304   2.269   1.592   2.547   2.243   2.584   2.692   3.345   3.317   3.349   3.444

    1.050   8.355
    9.399   9.526   9.806   9.722  10.056  10.800  10.006   9.207   8.718   8.256   8.169   9.037   9.305