
This full-field turbulence file was generated by TurbSim (v1.06.00, 21-Sep-2012) on 23-Feb-2017 at 18:41:54.

 | u-comp |  Y  x  Z  | Grid Resolution (Y x Z) | Time-step | Hub Elev | Mean U |
            13    13     14.600     14.600          0.050      87.70      5.81

 Z Coordinates (m):
  -87.600 -73.000 -58.400 -43.800 -29.200 -14.600   0.000  14.600  29.200  43.800  58.400  73.000  87.600

 Y Coordinates (m):
  -87.600 -73.000 -58.400 -43.800 -29.200 -14.600   0.000  14.600  29.200  43.800  58.400  73.000  87.600

    0.000   5.544
    6.052   6.125   5.961   6.275   5.862   5.982   5.771   5.800   5.866   5.837   5.788   6.068   6.087
    5.921   6.582   6.436   6.294   6.554   6.193   6.399   6.328   6.282   6.139   6.247   6.293   6.432
    5.887   6.257   6.202   5.982   5.970   6.142   6.186   6.213   6.322   5.902   6.235   6.376   6.382
    6.119   5.718   5.950   6.040   6.125   5.637   6.050   6.073   6.039   6.327   6.643   6.874   6.297
    6.478   5.989   5.662   5.746   5.733   5.816   5.923   5.920   5.929   5.812   6.362   6.109   6.102
    5.544   5.813   5.446   5.411   5.842   5.700   5.554   5.679   5.673   5.697   6.241   6.011   5.795
    5.254   5.152   5.453   5.459   5.330   5.238   5.544   5.656   5.673   5.575   5.821   6.421   6.189
    5.150   4.856   5.032   5.311   5.227   5.287   5.542   5.191   5.309   5.663   5.594   5.341   5.365
    4.736   5.244   5.075   5.044   4.847   4.833   5.137   5.200   5.255   5.647   5.005   5.002   5.260
    4.505   5.158   4.701   4.560   4.533   4.557   4.519   4.877   5.251   4.897   4.610   4.911   4.498
    4.378   4.275   4.168   3.936   3.713   4.252   3.724   4.126   4.369   4.353   4.520   4.839   4.188
    3.800   3.597   3.939   3.369   3.909   3.355   3.409   3.618   3.574   4.048   4.597   3.959   4.049
    1.342   1.055   1.056   1.416   1.010   1.230   1.035   1.201   1.146   1.668   1.798   1.631   1.463

    0.050   5.605
    6.081   6.098   6.013   6.198   5.843   5.882   5.717   5.758   5.900   5.839   5.795   6.062   6.126
    5.988   6.546   6.494   6.323   6.583   6.230   6.484   6.331   6.232   6.166   6.277   6.327   6.471
    5.990   6.235   6.258   5.992   5.937   6.180   6.230   6.230   6.360   5.916   6.193   6.378   6.398
    6.127   5.693   5.979   5.972   6.106   5.579   6.021   6.130   5.993   6.356   6.564   6.809   6.308
    6.454   5.967   5.556   5.674   5.731   5.816   6.006   5.846   5.921   5.807   6.388   6.049   6.150
    5.528   5.735   5.462   5.354   5.793   5.677   5.563   5.628   5.603   5.736   6.242   5.972   5.754
    5.302   5.125   5.461   5.415   5.386   5.277   5.605   5.568   5.647   5.573   5.852   6.274   6.161
    5.192   4.864   5.058   5.297   5.206   5.277   5.444   5.184   5.311   5.697   5.535   5.396   5.434
    4.725   5.247   5.037   5.044   4.925   4.852   5.111   5.178   5.314   5.650   5.048   5.012   5.225
    4.521   5.066   4.710   4.510   4.518   4.494   4.560   4.876   5.309   4.943   4.701   4.904   4.440
    4.383   4.242   4.200   3.961   3.677   4.253   3.782   4.184   4.341   4.361   4.590   4.920   4.216
    3.795   3.671   3.989   3.343   3.936   3.350   3.371   3.603   3.595   4.001   4.520   3.943   4.142
    1.341   1.051   1.064   1.401   1.025   1.104   1.001   1.111   1.166   1.589   1.722   1.657   1.530

    0.100   5.638
    6.129   6.051   5.988   6.217   5.855   5.837   5.679   5.769   5.847   5.863   5.814   5.989   6.162
    6.036   6.552   6.430   6.341   6.561   6.249   6.494   6.406   6.300   6.151   6.247   6.372   6.513
    5.946   6.191   6.310   6.017   5.904   6.199   6.243   6.247   6.352   5.903   6.176   6.389   6.375
    6.138   5.679   5.971   5.875   6.063   5.609   5.971   6.141   6.040   6.347   6.499   6.857   6.291
    6.417   5.957   5.639   5.670   5.713   5.819   6.051   5.883   5.929   5.826   6.449   6.066   6.164
    5.560   5.721   5.516   5.355   5.768   5.687   5.561   5.687   5.580   5.658   6.228   5.939   5.712
    5.266   5.130   5.446   5.430   5.410   5.226   5.638   5.510   5.625   5.524   5.848   6.230   6.162
    5.127   4.850   5.063   5.258   5.221   5.288   5.422   5.135   5.262   5.706   5.574   5.355   5.457
    4.715   5.246   5.001   5.042   4.961   4.859   5.167   5.180   5.369   5.620   5.069   4.991   5.271
    4.567   4.995   4.724   4.486   4.557   4.488   4.564   4.898   5.329   5.014   4.710   4.810   4.499
    4.319   4.187   4.242   4.008   3.724   4.228   3.808   4.244   4.342   4.314   4.592   4.889   4.168
    3.833   3.660   3.941   3.349   3.888   3.372   3.369   3.569   3.579   3.978   4.629   3.994   4.219
    1.460   1.127   1.094   1.347   1.005   1.098   1.024   1.155   1.191   1.526   1.792   1.611   1.501

    0.150   5.631
    6.142   6.050   6.018   6.227   5.870   5.954   5.703   5.729   5.912   5.888   5.783   6.063   6.157
    6.096   6.545   6.495   6.366   6.496   6.212   6.494   6.384   6.243   6.138   6.211   6.336   6.528
    6.006   6.275   6.308   5.974   5.926   6.227   6.321   6.207   6.350   5.995   6.291   6.422   6.383
    6.023   5.704   5.926   5.928   6.090   5.614   5.980   6.114   6.081   6.313   6.454   6.928   6.303
    6.498   5.969   5.666   5.603   5.712   5.848   6.048   5.951   5.948   5.807   6.423   6.033   6.221
    5.511   5.749   5.481   5.334   5.731   5.735   5.588   5.747   5.562   5.625   6.143   5.895   5.644
    5.288   4.993   5.415   5.355   5.376   5.229   5.631   5.526   5.662   5.468   5.775   6.244   6.152
    5.046   4.868   5.089   5.259   5.230   5.334   5.417   5.152   5.314   5.655   5.543   5.331   5.377
    4.760   5.216   4.989   5.071   4.977   4.932   5.143   5.186   5.459   5.571   5.042   4.974   5.340
    4.557   4.970   4.789   4.544   4.599   4.478   4.580   4.960   5.272   5.008   4.671   4.889   4.540
    4.288   4.157   4.207   3.977   3.708   4.152   3.780   4.228   4.337   4.341   4.546   4.844   4.176
    3.817   3.639   4.005   3.311   3.910   3.380   3.299   3.579   3.560   3.992   4.530   4.047   4.263
    1.463   1.140   1.092   1.402   1.008   1.122   0.931   1.264   1.188   1.570   1.771   1.612   1.390

    0.200   5.582
    6.176   5.998   6.019   6.157   5.881   6.001   5.740   5.685   5.914   5.886   5.726   6.101   6.119
    6.095   6.555   6.524   6.343   6.506   6.191   6.444   6.414   6.251   6.181   6.173   6.280   6.535
    5.984   6.222   6.238   5.965   5.853   6.150   6.311   6.205   6.270   5.999   6.253   6.421   6.410
    6.018   5.767   5.897   5.982   6.025   5.579   5.959   6.055   6.063   6.216   6.440   6.863   6.406
    6.523   5.945   5.709   5.611   5.734   5.799   6.062   5.990   5.915   5.799   6.419   6.055   6.188
    5.437   5.754   5.488   5.266   5.780   5.687   5.576   5.712   5.518   5.620   6.092   5.931   5.636
    5.249   4.922   5.407   5.319   5.422   5.150   5.582   5.503   5.606   5.422   5.859   6.274   6.140
    5.095   4.842   5.143   5.251   5.188   5.332   5.388   5.145   5.300   5.668   5.521   5.332   5.362
    4.698   5.216   5.040   5.063   4.959   4.914   5.162   5.187   5.417   5.560   5.061   4.991   5.340
    4.579   4.984   4.775   4.572   4.543   4.522   4.513   4.984   5.295   4.991   4.632   4.858   4.570
    4.248   4.125   4.169   4.007   3.725   4.146   3.722   4.229   4.404   4.370   4.592   4.881   4.175
    3.813   3.712   3.943   3.278   3.915   3.410   3.307   3.609   3.526   4.030   4.454   4.073   4.194
    1.411   1.076   1.097   1.381   0.951   1.069   0.942   1.260   1.167   1.564   1.735   1.609   1.401

    0.250   5.580
    6.082   6.100   6.086   6.151   5.862   5.978   5.792   5.656   5.963   5.894   5.770   6.078   6.091
    6.085   6.535   6.468   6.263   6.510   6.191   6.379   6.414   6.248   6.249   6.240   6.348   6.581
    5.993   6.218   6.226   5.975   5.824   6.133   6.338   6.243   6.306   5.938   6.218   6.399   6.419
    6.005   5.746   5.828   5.976   6.044   5.623   6.021   6.068   6.076   6.206   6.437   6.824   6.366
    6.521   5.914   5.710   5.649   5.785   5.842   6.053   5.996   5.967   5.844   6.437   6.073   6.231
    5.394   5.806   5.515   5.205   5.792   5.766   5.555   5.678   5.510   5.653   6.163   5.915   5.566
    5.254   4.939   5.472   5.375   5.476   5.087   5.580   5.561   5.652   5.368   5.898   6.269   6.085
    5.096   4.811   5.102   5.209   5.102   5.332   5.381   5.153   5.307   5.671   5.522   5.341   5.315
    4.687   5.167   5.059   5.034   4.899   4.893   5.174   5.236   5.412   5.555   5.000   4.898   5.323
    4.597   5.053   4.840   4.652   4.561   4.586   4.573   4.921   5.308   4.991   4.636   4.875   4.533
    4.278   4.132   4.197   3.995   3.709   4.214   3.681   4.187   4.412   4.318   4.606   4.837   4.227
    3.828   3.711   3.984   3.331   3.865   3.403   3.335   3.558   3.548   3.973   4.433   4.088   4.215
    1.331   1.035   1.082   1.371   1.052   0.994   1.024   1.214   1.181   1.561   1.761   1.619   1.443

    0.300   5.593
    6.072   6.067   6.098   6.197   5.846   5.999   5.802   5.617   5.976   5.883   5.745   6.135   6.074
    6.002   6.538   6.402   6.220   6.527   6.203   6.367   6.395   6.215   6.242   6.135   6.308   6.585
    6.058   6.284   6.296   6.020   5.810   6.103   6.332   6.228   6.334   5.887   6.225   6.445   6.438
    5.979   5.783   5.789   5.977   5.987   5.709   5.985   6.095   6.075   6.250   6.473   6.864   6.358
    6.497   5.848   5.650   5.693   5.752   5.890   5.983   5.976   5.917   5.913   6.416   6.073   6.233
    5.404   5.784   5.549   5.242   5.831   5.793   5.545   5.629   5.529   5.673   6.190   5.891   5.573
    5.330   4.927   5.453   5.397   5.418   5.091   5.593   5.621   5.584   5.319   5.859   6.329   6.024
    5.148   4.742   5.123   5.186   5.043   5.314   5.398   5.240   5.309   5.711   5.565   5.284   5.356
    4.648   5.126   5.000   5.051   4.861   4.938   5.158   5.217   5.480   5.589   4.937   4.903   5.324
    4.641   5.044   4.803   4.603   4.561   4.600   4.577   4.868   5.326   4.997   4.650   4.884   4.561
    4.378   4.139   4.186   3.984   3.738   4.174   3.705   4.136   4.437   4.305   4.608   4.905   4.226
    3.809   3.757   3.971   3.337   3.885   3.477   3.303   3.620   3.535   3.972   4.440   4.082   4.148
    1.316   1.079   1.126   1.360   0.951   0.939   0.966   1.201   1.169   1.522   1.719   1.530   1.366

    0.350   5.621
    6.081   6.026   6.063   6.229   5.832   5.973   5.822   5.677   5.900   5.901   5.805   6.149   6.067
    6.009   6.514   6.372   6.268   6.452   6.204   6.354   6.412   6.224   6.127   6.106   6.381   6.618
    6.051   6.313   6.276   6.042   5.893   6.116   6.356   6.151   6.318   5.946   6.246   6.430   6.413
    6.042   5.757   5.809   5.943   5.988   5.668   6.000   6.060   6.035   6.138   6.448   6.922   6.336
    6.486   5.914   5.675   5.680   5.705   5.934   6.038   5.977   5.923   5.928   6.430   6.046   6.272
    5.418   5.714   5.611   5.255   5.813   5.752   5.537   5.623   5.575   5.669   6.176   5.883   5.635
    5.257   5.036   5.454   5.491   5.387   5.099   5.621   5.596   5.532   5.320   5.869   6.346   6.041
    5.181   4.686   5.123   5.127   5.122   5.361   5.385   5.295   5.233   5.706   5.541   5.374   5.437
    4.692   5.209   5.051   5.044   4.943   4.964   5.152   5.190   5.450   5.549   4.977   4.882   5.306
    4.630   5.073   4.776   4.555   4.628   4.564   4.537   4.801   5.415   4.972   4.622   4.904   4.537
    4.427   4.060   4.226   3.994   3.746   4.146   3.717   4.209   4.399   4.334   4.629   4.928   4.214
    3.844   3.790   3.961   3.339   3.860   3.506   3.328   3.665   3.495   3.935   4.435   4.097   4.132
    1.368   1.092   1.198   1.421   0.904   0.975   0.927   1.192   1.270   1.494   1.655   1.557   1.363

    0.400   5.704
    6.042   6.018   6.022   6.270   5.824   5.915   5.815   5.704   5.866   5.895   5.814   6.142   6.069
    5.987   6.551   6.350   6.267   6.382   6.200   6.452   6.468   6.183   6.139   6.120   6.378   6.536
    6.015   6.274   6.332   6.050   5.891   6.148   6.311   6.083   6.303   5.932   6.165   6.448   6.445
    6.117   5.818   5.790   5.936   6.000   5.669   5.957   6.067   6.114   6.073   6.420   6.912   6.350
    6.449   5.902   5.680   5.718   5.696   6.001   6.013   5.885   5.899   5.931   6.440   6.039   6.271
    5.438   5.782   5.661   5.299   5.827   5.740   5.569   5.711   5.542   5.726   6.189   5.912   5.649
    5.209   5.097   5.540   5.460   5.408   5.065   5.704   5.626   5.634   5.337   5.860   6.352   6.056
    5.179   4.656   5.091   5.124   5.075   5.380   5.382   5.232   5.275   5.702   5.556   5.312   5.394
    4.671   5.211   5.078   5.021   4.874   5.055   5.091   5.191   5.405   5.495   4.970   4.912   5.287
    4.584   5.018   4.801   4.588   4.691   4.569   4.539   4.781   5.342   4.904   4.573   4.888   4.556
    4.436   4.000   4.131   4.020   3.792   4.079   3.720   4.231   4.439   4.372   4.674   4.902   4.200
    3.814   3.767   3.964   3.304   3.833   3.589   3.354   3.589   3.394   3.909   4.458   4.059   4.078
    1.329   1.055   1.196   1.407   0.891   0.943   0.857   1.175   1.316   1.430   1.596   1.522   1.309

    0.450   5.796
    6.024   6.036   6.029   6.301   5.853   5.971   5.763   5.712   5.914   5.882   5.833   6.063   6.123
    6.007   6.526   6.361   6.282   6.368   6.253   6.456   6.412   6.218   6.068   6.095   6.346   6.518
    5.990   6.236   6.321   6.013   5.924   6.164   6.276   6.154   6.272   5.895   6.171   6.490   6.495
    6.106   5.861   5.840   5.923   5.997   5.668   5.910   6.013   6.090   6.129   6.393   6.907   6.413
    6.504   6.025   5.724   5.675   5.643   5.995   6.010   5.848   5.811   5.914   6.517   6.050   6.316
    5.398   5.719   5.622   5.286   5.838   5.733   5.620   5.751   5.556   5.688   6.205   5.903   5.617
    5.346   4.996   5.474   5.535   5.417   5.125   5.796   5.554   5.656   5.447   5.842   6.309   6.125
    5.245   4.717   5.119   5.149   5.066   5.349   5.310   5.169   5.273   5.675   5.573   5.322   5.377
    4.625   5.172   5.106   5.023   4.888   5.063   5.079   5.235   5.481   5.541   4.962   4.912   5.321
    4.606   4.952   4.814   4.626   4.653   4.600   4.515   4.742   5.272   4.968   4.575   4.962   4.542
    4.422   4.022   4.097   3.968   3.834   4.020   3.826   4.264   4.302   4.393   4.675   4.912   4.227
    3.791   3.763   3.896   3.368   3.874   3.598   3.415   3.559   3.366   3.903   4.388   4.089   4.038
    1.181   1.057   1.192   1.450   0.974   1.047   0.881   1.170   1.258   1.512   1.666   1.512   1.388

    0.500   5.791
    6.085   6.086   6.040   6.299   5.815   5.916   5.776   5.758   5.913   5.821   5.795   6.084   6.121
    6.031   6.499   6.462   6.288   6.338   6.229   6.390   6.443   6.210   6.108   6.110   6.309   6.595
    6.032   6.159   6.406   6.047   5.989   6.163   6.286   6.169   6.254   5.903   6.204   6.517   6.514
    6.049   5.801   5.824   5.916   5.998   5.614   5.828   6.005   6.085   6.119   6.373   6.909   6.340
    6.479   6.031   5.721   5.625   5.657   6.044   6.042   5.878   5.838   5.901   6.497   6.060   6.284
    5.377   5.693   5.638   5.265   5.807   5.805   5.616   5.694   5.640   5.679   6.263   5.918   5.621
    5.401   4.979   5.510   5.548   5.372   5.152   5.791   5.508   5.670   5.500   5.795   6.255   6.045
    5.253   4.750   5.077   5.179   5.105   5.373   5.284   5.113   5.324   5.687   5.479   5.345   5.408
    4.570   5.131   5.059   5.013   4.867   5.017   5.083   5.143   5.388   5.564   5.031   4.940   5.296
    4.636   4.977   4.912   4.574   4.644   4.532   4.558   4.698   5.255   4.995   4.551   5.026   4.521
    4.414   4.024   4.063   4.001   3.833   4.079   3.768   4.262   4.324   4.404   4.617   4.873   4.285
    3.738   3.798   3.878   3.396   3.851   3.606   3.374   3.548   3.398   3.893   4.427   4.061   4.030
    1.137   1.056   1.100   1.524   0.887   1.000   0.876   1.173   1.199   1.553   1.655   1.476   1.364

    0.550   5.770
    6.160   6.113   5.983   6.279   5.828   5.880   5.819   5.714   5.884   5.764   5.815   6.071   6.102
    6.113   6.486   6.479   6.290   6.400   6.281   6.367   6.453   6.257   6.130   6.116   6.328   6.615
    5.993   6.162   6.339   6.100   5.940   6.240   6.261   6.234   6.211   5.925   6.195   6.468   6.471
    6.005   5.686   5.829   5.901   6.064   5.581   5.903   5.978   6.122   6.104   6.246   6.912   6.327
    6.364   6.092   5.689   5.547   5.640   6.027   6.077   5.905   5.822   5.857   6.514   6.062   6.263
    5.445   5.651   5.588   5.304   5.776   5.875   5.659   5.740   5.694   5.727   6.224   5.827   5.620
    5.428   4.975   5.577   5.561   5.353   5.144   5.770   5.479   5.649   5.504   5.816   6.226   6.041
    5.237   4.763   5.071   5.167   5.130   5.306   5.324   5.056   5.385   5.641   5.433   5.343   5.482
    4.641   5.068   5.002   5.036   4.880   5.051   5.001   5.108   5.321   5.507   5.006   4.947   5.282
    4.639   4.985   4.853   4.535   4.619   4.478   4.554   4.680   5.314   4.932   4.507   5.028   4.571
    4.497   4.023   4.104   3.982   3.780   4.100   3.815   4.202   4.324   4.387   4.610   4.869   4.292
    3.777   3.734   3.881   3.346   3.853   3.534   3.402   3.587   3.431   3.955   4.488   4.105   4.028
    1.146   1.040   1.179   1.584   0.928   0.984   0.944   1.095   1.323   1.579   1.693   1.402   1.341

    0.600   5.826
    6.161   6.100   5.891   6.276   5.815   5.996   5.823   5.636   5.876   5.781   5.783   6.105   6.055
    6.057   6.523   6.464   6.308   6.373   6.272   6.298   6.425   6.319   6.174   6.133   6.340   6.513
    6.001   6.212   6.333   6.042   5.901   6.195   6.240   6.321   6.220   5.967   6.186   6.467   6.525
    5.986   5.717   5.889   5.907   6.077   5.575   5.934   6.028   6.112   6.091   6.248   6.931   6.321
    6.403   6.176   5.775   5.617   5.596   5.946   5.973   5.903   5.834   5.806   6.509   6.021   6.246
    5.402   5.632   5.635   5.304   5.742   5.912   5.665   5.684   5.695   5.683   6.183   5.808   5.624
    5.393   4.971   5.609   5.599   5.467   5.110   5.826   5.437   5.543   5.488   5.841   6.180   6.016
    5.248   4.734   5.036   5.208   5.065   5.283   5.413   5.084   5.334   5.670   5.459   5.407   5.436
    4.706   5.091   5.010   5.098   4.818   5.024   5.006   5.078   5.352   5.554   4.887   4.840   5.318
    4.639   4.968   4.820   4.537   4.536   4.463   4.546   4.765   5.362   4.926   4.491   4.998   4.629
    4.565   4.063   4.135   4.041   3.663   4.056   3.797   4.180   4.362   4.405   4.627   4.897   4.242
    3.811   3.671   3.862   3.263   3.782   3.498   3.375   3.610   3.333   3.945   4.555   4.040   4.037
    1.112   1.008   1.251   1.544   0.924   1.065   0.990   1.048   1.340   1.563   1.701   1.430   1.333

    0.650   5.881
    6.087   6.125   5.947   6.316   5.824   5.984   5.853   5.660   5.882   5.747   5.795   6.039   6.101
    5.987   6.482   6.474   6.322   6.387   6.257   6.350   6.421   6.304   6.118   6.099   6.326   6.473
    6.002   6.217   6.360   6.046   5.894   6.210   6.226   6.252   6.226   6.019   6.217   6.464   6.525
    6.009   5.749   5.955   5.835   6.131   5.567   5.977   5.865   6.046   6.025   6.275   6.928   6.352
    6.404   6.111   5.782   5.583   5.670   6.012   5.971   5.910   5.751   5.816   6.485   6.064   6.221
    5.456   5.623   5.670   5.349   5.828   5.907   5.681   5.648   5.716   5.643   6.219   5.856   5.667
    5.411   4.972   5.641   5.610   5.482   5.194   5.881   5.456   5.560   5.452   5.890   6.205   6.039
    5.238   4.733   5.071   5.276   4.980   5.316   5.312   5.098   5.305   5.666   5.515   5.352   5.405
    4.663   5.077   5.027   5.141   4.785   4.964   4.983   5.117   5.322   5.452   4.916   4.919   5.251
    4.638   4.972   4.832   4.581   4.526   4.472   4.552   4.789   5.313   4.913   4.466   5.086   4.670
    4.645   4.077   4.164   4.072   3.733   4.017   3.856   4.178   4.317   4.453   4.635   4.916   4.230
    3.806   3.628   3.869   3.249   3.721   3.487   3.504   3.556   3.359   3.992   4.410   4.126   3.985
    1.081   0.972   1.285   1.514   0.998   1.019   1.062   1.051   1.306   1.548   1.719   1.568   1.304

    0.700   5.912
    6.048   6.068   5.940   6.317   5.854   5.970   5.867   5.657   5.808   5.703   5.782   6.070   6.168
    6.028   6.517   6.424   6.249   6.339   6.204   6.403   6.417   6.271   6.159   6.081   6.311   6.449
    6.054   6.262   6.372   6.092   5.809   6.231   6.227   6.309   6.230   6.015   6.278   6.514   6.543
    5.981   5.739   5.994   5.840   6.098   5.551   5.986   5.854   6.019   6.076   6.278   6.967   6.241
    6.415   6.150   5.738   5.541   5.682   6.076   6.022   5.903   5.759   5.856   6.508   6.123   6.188
    5.478   5.614   5.632   5.325   5.904   5.881   5.585   5.612   5.748   5.672   6.230   5.824   5.674
    5.414   4.920   5.643   5.643   5.456   5.174   5.912   5.486   5.568   5.461   5.918   6.175   5.988
    5.197   4.757   5.121   5.337   4.993   5.279   5.298   5.138   5.261   5.633   5.544   5.410   5.370
    4.637   5.031   5.027   5.129   4.818   4.998   5.020   5.190   5.276   5.430   4.985   4.969   5.243
    4.625   4.963   4.837   4.557   4.597   4.489   4.630   4.776   5.357   4.819   4.411   5.104   4.693
    4.588   4.020   4.104   4.053   3.786   4.026   3.874   4.113   4.310   4.515   4.710   4.881   4.322
    3.833   3.684   3.861   3.254   3.717   3.452   3.555   3.554   3.383   4.069   4.378   4.178   4.035
    1.164   0.997   1.253   1.502   1.006   1.009   1.150   0.974   1.239   1.551   1.700   1.568   1.257

    0.750   5.814
    6.135   6.110   5.932   6.296   5.828   6.018   5.848   5.650   5.780   5.616   5.782   6.011   6.136
    6.051   6.550   6.434   6.283   6.324   6.227   6.388   6.436   6.293   6.183   6.062   6.243   6.401
    6.028   6.266   6.333   6.099   5.850   6.206   6.285   6.350   6.220   6.023   6.235   6.573   6.603
    6.070   5.711   5.997   5.934   6.118   5.575   5.941   5.783   6.006   6.022   6.321   7.001   6.290
    6.447   6.102   5.776   5.575   5.730   6.073   5.992   5.888   5.848   5.852   6.558   6.119   6.131
    5.464   5.618   5.677   5.319   5.879   5.867   5.614   5.637   5.731   5.672   6.263   5.869   5.611
    5.395   4.975   5.629   5.656   5.425   5.202   5.814   5.601   5.517   5.527   5.940   6.150   6.027
    5.239   4.839   5.053   5.362   4.954   5.320   5.322   5.138   5.225   5.710   5.583   5.417   5.382
    4.566   5.108   5.008   5.136   4.887   5.083   5.001   5.163   5.338   5.428   5.015   4.882   5.208
    4.579   4.985   4.887   4.527   4.613   4.491   4.621   4.730   5.358   4.798   4.481   5.097   4.649
    4.622   4.079   4.133   4.073   3.833   3.978   3.868   4.197   4.276   4.516   4.775   4.924   4.322
    3.837   3.662   3.855   3.320   3.700   3.417   3.489   3.595   3.430   4.065   4.437   4.161   3.970
    1.185   0.976   1.248   1.458   1.081   1.013   1.130   1.062   1.298   1.571   1.651   1.629   1.304

    0.800   5.723
    6.099   6.117   5.972   6.334   5.786   6.057   5.767   5.647   5.786   5.633   5.785   5.955   6.159
    6.106   6.532   6.484   6.315   6.372   6.166   6.420   6.456   6.231   6.194   6.071   6.226   6.394
    5.985   6.200   6.309   6.125   5.879   6.203   6.286   6.409   6.281   6.006   6.228   6.588   6.573
    6.032   5.766   6.027   5.967   6.070   5.565   5.860   5.771   6.065   6.003   6.332   7.001   6.345
    6.499   6.075   5.709   5.645   5.717   6.083   5.967   5.893   5.884   5.892   6.598   6.042   6.054
    5.434   5.687   5.704   5.391   5.858   5.863   5.556   5.639   5.739   5.687   6.217   5.846   5.632
    5.428   4.961   5.658   5.635   5.449   5.196   5.723   5.566   5.545   5.535   5.930   6.111   5.998
    5.253   4.818   5.115   5.346   4.983   5.355   5.304   5.157   5.211   5.714   5.602   5.429   5.414
    4.567   5.046   5.000   5.148   4.858   5.069   4.931   5.162   5.303   5.371   5.019   4.874   5.136
    4.591   4.919   4.928   4.586   4.670   4.494   4.583   4.739   5.393   4.820   4.470   5.057   4.658
    4.586   4.090   4.186   4.063   3.831   4.039   3.843   4.213   4.328   4.508   4.717   4.964   4.251
    3.770   3.613   3.874   3.366   3.635   3.383   3.501   3.524   3.447   4.038   4.370   4.117   3.962
    1.208   0.957   1.226   1.467   1.086   1.024   1.116   1.108   1.330   1.555   1.606   1.626   1.316

    0.850   5.695
    6.112   6.124   5.999   6.364   5.827   6.059   5.752   5.633   5.789   5.627   5.754   5.972   6.237
    6.064   6.530   6.511   6.340   6.364   6.156   6.408   6.428   6.191   6.200   6.060   6.257   6.407
    6.028   6.251   6.330   6.155   5.869   6.248   6.249   6.402   6.240   6.018   6.154   6.616   6.587
    5.947   5.798   6.064   5.884   6.044   5.637   5.895   5.773   6.074   6.059   6.326   6.990   6.340
    6.514   5.984   5.703   5.691   5.731   6.110   5.834   5.892   5.875   5.921   6.602   5.994   6.032
    5.423   5.703   5.732   5.369   5.904   5.888   5.552   5.509   5.747   5.729   6.184   5.821   5.662
    5.376   4.931   5.633   5.651   5.444   5.144   5.695   5.536   5.529   5.523   5.977   6.169   6.005
    5.232   4.847   5.087   5.325   4.977   5.303   5.263   5.124   5.243   5.736   5.544   5.474   5.405
    4.630   5.035   4.966   5.071   4.869   5.127   4.889   5.125   5.304   5.383   4.988   4.830   5.217
    4.726   4.921   4.919   4.637   4.620   4.490   4.500   4.732   5.290   4.784   4.489   4.981   4.680
    4.578   4.132   4.177   4.020   3.911   4.104   3.890   4.218   4.309   4.493   4.685   4.958   4.263
    3.727   3.596   3.904   3.370   3.600   3.371   3.502   3.481   3.475   4.094   4.474   4.139   4.011
    1.198   0.911   1.186   1.438   1.010   0.963   1.128   1.113   1.311   1.589   1.704   1.601   1.288

    0.900   5.728
    6.076   6.112   5.929   6.294   5.836   6.041   5.798   5.606   5.776   5.577   5.729   5.946   6.293
    6.047   6.469   6.472   6.334   6.336   6.190   6.348   6.395   6.242   6.233   6.046   6.274   6.422
    6.031   6.256   6.310   6.219   5.850   6.174   6.249   6.427   6.172   6.037   6.140   6.613   6.648
    5.948   5.844   6.085   5.999   6.059   5.608   5.902   5.827   6.141   6.054   6.340   6.950   6.337
    6.572   6.037   5.693   5.712   5.668   6.052   5.881   5.974   5.932   5.923   6.663   6.061   5.996
    5.380   5.664   5.765   5.357   5.867   5.931   5.525   5.547   5.705   5.678   6.219   5.849   5.660
    5.420   4.973   5.663   5.653   5.466   5.190   5.728   5.531   5.503   5.445   5.994   6.192   5.997
    5.200   4.809   5.021   5.333   4.992   5.302   5.249   5.199   5.307   5.766   5.451   5.479   5.399
    4.656   5.019   4.962   5.045   4.854   5.172   4.871   5.090   5.246   5.374   4.999   4.805   5.266
    4.646   4.874   4.867   4.596   4.593   4.474   4.536   4.627   5.383   4.824   4.468   4.962   4.678
    4.503   4.223   4.202   4.077   3.887   4.159   3.863   4.237   4.338   4.541   4.603   4.964   4.246
    3.662   3.553   3.884   3.356   3.561   3.375   3.515   3.437   3.442   4.097   4.459   4.193   4.040
    1.209   0.863   1.137   1.402   1.035   1.000   1.156   1.143   1.332   1.609   1.711   1.517   1.319

    0.950   5.703
    6.126   6.096   5.872   6.316   5.859   5.959   5.871   5.593   5.758   5.572   5.768   5.963   6.217
    6.034   6.421   6.443   6.305   6.392   6.120   6.312   6.430   6.191   6.190   6.058   6.349   6.353
    5.975   6.283   6.322   6.214   5.874   6.176   6.262   6.403   6.149   6.015   6.140   6.575   6.636
    5.999   5.890   6.132   5.975   6.030   5.584   5.882   5.830   6.146   6.041   6.373   6.857   6.283
    6.529   6.068   5.677   5.719   5.706   6.076   5.889   6.020   5.921   5.881   6.654   6.008   5.981
    5.426   5.722   5.760   5.396   5.816   5.927   5.554   5.546   5.735   5.728   6.240   5.762   5.640
    5.422   4.980   5.569   5.643   5.457   5.131   5.703   5.502   5.495   5.420   6.008   6.220   5.977
    5.189   4.800   5.035   5.270   4.966   5.282   5.234   5.272   5.319   5.754   5.495   5.480   5.374
    4.716   5.025   4.997   5.055   4.893   5.165   4.924   5.130   5.195   5.395   5.008   4.861   5.268
    4.670   4.881   4.855   4.628   4.503   4.457   4.559   4.580   5.380   4.816   4.482   4.895   4.728
    4.485   4.135   4.250   4.047   3.954   4.040   3.888   4.271   4.351   4.450   4.560   4.931   4.290
    3.638   3.554   3.894   3.357   3.550   3.417   3.549   3.411   3.433   4.114   4.444   4.150   4.041
    1.297   0.845   1.172   1.421   1.034   1.025   1.074   1.095   1.373   1.628   1.641   1.570   1.280

    1.000   5.678
    6.106   6.077   5.844   6.244   5.867   6.008   5.861   5.544   5.773   5.581   5.840   5.966   6.212
    6.129   6.407   6.495   6.274   6.459   6.099   6.254   6.428   6.203   6.160   6.019   6.387   6.323
    6.003   6.247   6.344   6.163   5.932   6.082   6.220   6.373   6.104   5.995   6.119   6.587   6.591
    5.916   5.877   6.076   5.949   6.028   5.568   5.959   5.858   6.100   5.946   6.274   6.774   6.225
    6.524   6.002   5.655   5.727   5.740   6.082   5.853   5.955   5.873   5.943   6.632   5.985   6.001
    5.445   5.716   5.755   5.339   5.748   5.930   5.482   5.595   5.725   5.789   6.250   5.803   5.700
    5.407   5.065   5.603   5.641   5.492   5.130   5.678   5.554   5.448   5.410   5.978   6.150   5.921
    5.244   4.779   5.061   5.244   5.033   5.251   5.235   5.343   5.312   5.651   5.508   5.491   5.332
    4.676   5.022   4.957   5.031   4.870   5.120   4.902   5.103   5.197   5.365   5.022   4.887   5.278
    4.672   4.956   4.793   4.627   4.515   4.430   4.575   4.597   5.367   4.756   4.519   4.875   4.780
    4.485   4.090   4.222   4.012   3.935   3.979   3.887   4.238   4.362   4.398   4.642   4.947   4.246
    3.649   3.475   3.819   3.344   3.516   3.434   3.597   3.411   3.437   4.137   4.433   4.115   4.024
    1.322   0.908   1.230   1.384   0.918   1.050   1.042   1.058   1.360   1.593   1.603   1.567   1.301

    1.050   5.793
    6.086   6.106   5.883   6.285   5.852   5.933   5.832   5.572   5.678   5.588   5.848   5.922   6.238